version 2
run General-0-20210525-18:24:22-22805
attr configname General
attr datetime 20210525-18:24:22
attr experiment General
attr inifile omnetpp.ini
attr iterationvars ""
attr iterationvarsf ""
attr measurement ""
attr network Network
attr processid 22805
attr repetition 0
attr replication #0
attr resultdir results
attr runnumber 0
attr seedset 0
param Network.node[{0,2}].**.interArrivalTime exponential(1)
param Network.node[{0,2}].**.packetByteSize 125000
param Network.node[{0,2}].**.destination 5

vector 0 Network.node[5].lnk[0] "Buffer Size" ETV
vector 1 Network.node[4].lnk[0] "Buffer Size" ETV
vector 2 Network.node[3].lnk[0] "Buffer Size" ETV
vector 3 Network.node[2].lnk[0] "Buffer Size" ETV
vector 4 Network.node[1].lnk[0] "Buffer Size" ETV
vector 5 Network.node[0].lnk[0] "Buffer Size" ETV
vector 6 Network.node[7].lnk[0] "Buffer Size" ETV
vector 7 Network.node[6].lnk[0] "Buffer Size" ETV
vector 8 Network.node[2].lnk[1] "Buffer Size" ETV
vector 9 Network.node[3].lnk[1] "Buffer Size" ETV
vector 10 Network.node[4].lnk[1] "Buffer Size" ETV
vector 11 Network.node[5].net hopCounts ETV
vector 12 Network.node[5].app Delay ETV
0	2	0	1
0	3	0	0
1	7	0.0011	1
1	8	0.0011	0
2	12	0.0022	1
2	13	0.0022	0
3	17	0.0033	1
3	18	0.0033	0
4	22	0.0044	1
4	23	0.0044	0
5	27	0.0055	1
5	28	0.0055	0
5	44	0.898560388484	1
5	45	0.898560388484	0
5	48	1.821783519955	1
5	53	1.898560388484	0
5	78	3.773328855839	1
5	79	3.773328855839	0
5	101	4.324377342509	1
5	106	4.773328855839	0
5	126	5.301383768902	1
5	136	5.773328855839	0
5	148	5.786511932624	1
5	158	6.139671071762	2
5	161	6.198055740855	3
5	172	6.773328855839	2
5	200	7.773328855839	1
5	230	8.773328855839	0
5	254	9.512968020783	1
5	259	9.773328855839	0
5	302	11.081864138406	1
5	303	11.081864138406	0
5	332	11.834538251719	1
5	333	12.081864138406	0
5	360	12.673971104619	1
5	365	13.081864138406	0
5	419	14.482340368894	1
5	420	14.482340368894	0
5	423	14.556025724359	1
5	426	14.967603720602	2
5	429	15.058764746726	3
5	459	15.482340368894	2
5	473	16.103377255034	3
5	488	16.482340368894	2
5	512	17.482340368894	1
5	543	18.482340368894	0
5	565	19.25354718371	1
5	580	19.482340368894	0
5	627	21.294439399622	1
5	628	21.294439399622	0
5	654	21.9361485723	1
5	655	22.294439399622	0
5	699	23.541388129362	1
5	700	23.541388129362	0
5	725	25.155390204255	1
5	726	25.155390204255	0
5	741	25.890354625445	1
5	747	26.155390204255	0
5	758	27.026293567155	1
5	771	27.152167976593	2
5	772	27.155390204255	1
5	795	28.155390204255	0
5	820	28.427395678817	1
5	823	28.582125359317	2
5	831	29.155390204255	1
5	857	29.352960017784	2
5	858	30.155390204255	1
5	888	30.774324697878	2
5	889	31.155390204255	1
5	914	31.512151989634	2
5	917	31.624098150267	3
5	922	32.155390204255	2
5	938	32.159663870495	3
5	945	32.466944222648	4
5	951	32.673147504678	5
5	957	33.155390204255	4
5	983	34.008437689302	5
5	988	34.155390204255	4
5	1007	34.617520112485	5
5	1010	34.762798139777	6
5	1013	34.781766708978	7
5	1028	35.155390204255	6
5	1044	35.173537519655	7
5	1067	36.134918458721	8
5	1068	36.155390204255	7
5	1087	36.386360390796	8
5	1090	36.874917440104	9
5	1105	37.155390204255	8
5	1136	38.155390204255	7
5	1164	39.155390204255	6
5	1183	39.752832461382	7
5	1198	40.155390204255	6
5	1214	40.3505785382	7
5	1220	40.796097033251	8
5	1235	41.155390204255	7
5	1251	41.370629439992	8
5	1269	42.155390204255	7
5	1306	43.155390204255	6
5	1322	43.696980501686	7
5	1337	44.155390204255	6
5	1353	44.795892969237	7
5	1368	45.155390204255	6
5	1384	45.854727100725	7
5	1399	46.155390204255	6
5	1425	46.965324546412	7
5	1437	47.10335323484	8
5	1438	47.155390204255	7
5	1467	48.155390204255	6
5	1483	48.492395924631	7
5	1499	48.944497984856	8
5	1506	49.155390204255	7
5	1539	49.788925778384	8
5	1540	50.155390204255	7
5	1571	51.155390204255	6
5	1599	52.155390204255	5
5	1627	53.155390204255	4
5	1661	54.155390204255	3
5	1677	54.24342262456	4
5	1680	54.477724143336	5
5	1698	55.155390204255	4
5	1717	55.485743388756	5
5	1732	56.155390204255	4
5	1762	56.54448610385	5
5	1763	57.155390204255	4
5	1779	57.416401957476	5
5	1796	57.708482490743	6
5	1797	58.155390204255	5
5	1813	58.243547167826	6
5	1830	58.871488748817	7
5	1831	59.155390204255	6
5	1847	59.51526975042	7
5	1864	59.795546758899	8
5	1865	60.155390204255	7
5	1899	60.77241083297	8
5	1906	61.155390204255	7
5	1922	61.184912062892	8
5	1940	62.155390204255	7
5	1956	62.252984260042	8
5	1959	62.401696529294	9
5	1980	63.155390204255	8
5	2010	63.908331862567	9
5	2011	64.155390204255	8
5	2027	64.368345820307	9
5	2042	65.155390204255	8
5	2058	65.454615201185	9
5	2082	66.155390204255	8
5	2113	67.155390204255	7
5	2129	67.174946858902	8
5	2144	68.155390204255	7
5	2160	68.294761224656	8
5	2163	68.395795999965	9
5	2181	69.155390204255	8
5	2209	70.155390204255	7
5	2237	71.155390204255	6
5	2267	71.969384372309	7
5	2268	72.155390204255	6
5	2298	73.155390204255	5
5	2326	74.074705673101	6
5	2329	74.132032599525	7
5	2330	74.155390204255	6
5	2356	75.060511096426	7
5	2357	75.155390204255	6
5	2387	75.660457983067	7
5	2388	76.155390204255	6
5	2413	77.004703255219	7
5	2416	77.024893383365	8
5	2419	77.064869682423	9
5	2420	77.155390204255	8
5	2444	77.64774807129	9
5	2451	78.155390204255	8
5	2476	79.155390204255	7
5	2506	80.155390204255	6
5	2540	81.155390204255	5
5	2570	81.539318194135	6
5	2573	82.074202569892	7
5	2574	82.155390204255	6
5	2605	83.155390204255	5
5	2639	84.155390204255	4
5	2669	84.578114352977	5
5	2673	85.155390204255	4
5	2703	85.410957869043	5
5	2710	86.155390204255	4
5	2741	87.155390204255	3
5	2774	87.41419839155	4
5	2777	87.512848699968	5
5	2778	88.155390204255	4
5	2806	89.155390204255	3
5	2839	90.053153207927	4
5	2842	90.139923690267	5
5	2843	90.155390204255	4
5	2877	91.155390204255	3
5	2911	92.155390204255	2
5	2944	92.789179618943	3
5	2947	92.930510332504	4
5	2948	93.155390204255	3
5	2978	93.972290986683	4
5	2979	94.155390204255	3
5	3010	95.155390204255	2
5	3026	95.232224796792	3
5	3043	95.573878963818	4
5	3046	95.88139668758	5
5	3052	96.083747126147	6
5	3053	96.155390204255	5
5	3086	96.966876168106	6
5	3089	96.987188626902	7
5	3090	97.155390204255	6
5	3106	97.167440878887	7
5	3133	98.155390204255	6
5	3163	98.9331819513	7
5	3167	99.155390204255	6
5	3200	99.776264983448	7
5	3201	100.155390204255	6
5	3237	101.105022857198	7
5	3238	101.155390204255	6
5	3268	101.672927010678	7
5	3271	101.958947983186	8
5	3272	102.155390204255	7
5	3300	103.155390204255	6
5	3316	103.36997239248	7
5	3331	104.155390204255	6
5	3347	104.228365360309	7
5	3367	104.732709166897	8
5	3368	105.155390204255	7
5	3402	106.155390204255	6
5	3432	106.996442742758	7
5	3436	107.155390204255	6
5	3452	107.248862735649	7
5	3467	108.155390204255	6
5	3495	109.155390204255	5
5	3526	110.155390204255	4
5	3542	110.301144392533	5
5	3562	110.893768419985	6
5	3566	111.155390204255	5
5	3594	112.155390204255	4
5	3624	112.767228299842	5
5	3625	113.155390204255	4
5	3655	113.969466867089	5
5	3658	114.092993514451	6
5	3659	114.155390204255	5
5	3689	114.446013647725	6
5	3693	115.155390204255	5
5	3723	115.902832206289	6
5	3724	116.155390204255	5
5	3754	116.433554702906	6
5	3760	116.938573450661	7
5	3761	117.155390204255	6
5	3795	118.155390204255	5
5	3828	119.068072846729	6
5	3829	119.155390204255	5
5	3860	120.155390204255	4
5	3888	121.155390204255	3
5	3904	121.202903296712	4
5	3919	122.155390204255	3
5	3935	122.382286230357	4
5	3953	123.155390204255	3
5	3969	123.270147640794	4
5	3987	124.155390204255	3
5	4003	124.34798252493	4
5	4023	125.109850296226	5
5	4024	125.155390204255	4
5	4040	125.371907537901	5
5	4055	126.155390204255	4
5	4085	126.404704548546	5
5	4088	126.907015346807	6
5	4089	127.155390204255	5
5	4119	127.458411336941	6
5	4124	128.155390204255	5
5	4149	128.422864902435	6
5	4163	129.066969610758	7
5	4164	129.155390204255	6
5	4187	129.425896826628	7
5	4198	130.155390204255	6
5	4217	130.505217025284	7
5	4237	130.847816649982	8
5	4238	131.155390204255	7
5	4271	131.810191705753	8
5	4272	132.155390204255	7
5	4288	132.370152775827	8
5	4312	133.155390204255	7
5	4346	134.155390204255	6
5	4365	134.477600380777	7
5	4383	135.155390204255	6
5	4399	135.371329459083	7
5	4420	136.155390204255	6
5	4436	136.225409194726	7
5	4454	137.155390204255	6
5	4488	138.155390204255	5
5	4522	139.155390204255	4
5	4552	139.697944674008	5
5	4555	139.850238299262	6
5	4556	140.155390204255	5
5	4572	140.30841118322	6
5	4575	140.410731798073	7
5	4592	140.983193349501	8
5	4596	141.155390204255	7
5	4624	142.155390204255	6
5	4652	143.155390204255	5
5	4686	144.155390204255	4
5	4716	145.121003110011	5
5	4717	145.155390204255	4
5	4750	145.891079969557	5
5	4751	146.155390204255	4
5	4767	146.485153467881	5
5	4773	146.59076611151	6
5	4794	147.155390204255	5
5	4822	148.155390204255	4
5	4858	149.110048241593	5
5	4859	149.155390204255	4
5	4887	150.155390204255	3
5	4917	150.94978102667	4
5	4920	151.111651113382	5
5	4921	151.155390204255	4
5	4949	152.155390204255	3
5	4977	153.155390204255	2
5	4993	153.461828403133	3
5	5008	154.155390204255	2
5	5036	155.155390204255	1
5	5052	155.487737220236	2
5	5055	155.526020133121	3
5	5075	155.703345708266	4
5	5076	156.155390204255	3
5	5112	156.659312132188	4
5	5116	157.155390204255	3
5	5144	158.155390204255	2
5	5160	158.169135587797	3
5	5178	159.155390204255	2
5	5206	160.155390204255	1
5	5222	160.171122083323	2
5	5242	160.70112496146	3
5	5245	160.851915971654	4
5	5252	161.155390204255	3
5	5271	161.374786001742	4
5	5286	162.155390204255	3
5	5302	162.570224568024	4
5	5319	163.037497134434	5
5	5320	163.155390204255	4
5	5336	163.641796206282	5
5	5351	164.155390204255	4
5	5367	164.186653334427	5
5	5382	165.155390204255	4
5	5404	165.466987538239	5
5	5421	165.921899383031	6
5	5422	166.155390204255	5
5	5450	167.155390204255	4
5	5484	168.155390204255	3
5	5512	169.155390204255	2
5	5537	169.631859974935	3
5	5554	170.078112795454	4
5	5555	170.155390204255	3
5	5586	171.155390204255	2
5	5614	172.155390204255	1
5	5647	172.962724547556	2
5	5650	173.151019522775	3
5	5651	173.155390204255	2
5	5667	173.565632065434	3
5	5685	174.155390204255	2
5	5701	174.301763165421	3
5	5707	174.35763321831	4
5	5710	174.580772426411	5
5	5733	174.77860193387	6
5	5737	175.155390204255	5
5	5771	176.155390204255	4
5	5787	176.357014655976	5
5	5804	176.780671757333	6
5	5805	177.155390204255	5
5	5836	178.155390204255	4
5	5864	179.155390204255	3
5	5894	179.66521604574	4
5	5895	180.155390204255	3
5	5914	180.602354763463	4
5	5929	181.155390204255	3
5	5945	181.510318790788	4
5	5948	181.542675595433	5
5	5969	182.155390204255	4
5	6002	183.0735068217	5
5	6005	183.125189727495	6
5	6006	183.155390204255	5
5	6039	183.986113364176	6
5	6040	184.155390204255	5
5	6056	184.257781434518	6
5	6074	185.155390204255	5
5	6102	186.155390204255	4
5	6130	187.155390204255	3
5	6164	188.155390204255	2
5	6197	189.136914322512	3
5	6198	189.155390204255	2
5	6228	189.903993977084	3
5	6232	190.155390204255	2
5	6263	191.155390204255	1
5	6293	191.901165944574	2
5	6294	192.155390204255	1
5	6325	193.155390204255	0
5	6341	193.210951315936	1
5	6344	193.584837811839	2
5	6359	194.155390204255	1
5	6375	194.392817865238	2
5	6392	194.900682987925	3
5	6395	195.139435860773	4
5	6396	195.155390204255	3
5	6412	195.374960434192	4
5	6418	195.626559047305	5
5	6438	195.873418316104	6
5	6439	196.155390204255	5
5	6469	196.716397091518	6
5	6470	197.155390204255	5
5	6500	198.061744524752	6
5	6501	198.155390204255	5
5	6530	198.663423511276	6
5	6531	199.155390204255	5
6	32	0.0066	1
6	33	0.0066	0
6	56	1.898660388484	1
6	57	1.898660388484	0
6	70	2.898660388484	1
6	71	2.898660388484	0
6	109	4.773428855839	1
6	110	4.773428855839	0
6	140	5.773428855839	1
6	141	5.773428855839	0
6	176	6.773428855839	1
6	177	6.773428855839	0
6	204	7.773428855839	1
6	205	7.773428855839	0
6	234	8.773428855839	1
6	235	8.773428855839	0
6	263	9.773428855839	1
6	264	9.773428855839	0
6	290	10.773428855839	1
6	291	10.773428855839	0
6	336	12.081964138406	1
6	337	12.081964138406	0
6	369	13.081964138406	1
6	370	13.081964138406	0
6	393	14.081964138406	1
6	394	14.081964138406	0
6	462	15.482440368894	1
6	463	15.482440368894	0
6	492	16.482440368894	1
6	493	16.482440368894	0
6	516	17.482440368894	1
6	517	17.482440368894	0
6	547	18.482440368894	1
6	548	18.482440368894	0
6	584	19.482440368894	1
6	585	19.482440368894	0
6	612	20.482440368894	1
6	613	20.482440368894	0
6	658	22.294539399622	1
6	659	22.294539399622	0
6	682	23.294539399622	1
6	683	23.294539399622	0
6	717	24.541488129362	1
6	718	24.541488129362	0
6	750	26.155490204255	1
6	751	26.155490204255	0
6	776	27.155490204255	1
6	777	27.155490204255	0
6	799	28.155490204255	1
6	800	28.155490204255	0
6	835	29.155490204255	1
6	836	29.155490204255	0
6	862	30.155490204255	1
6	863	30.155490204255	0
6	893	31.155490204255	1
6	894	31.155490204255	0
6	926	32.155490204255	1
6	927	32.155490204255	0
6	961	33.155490204255	1
6	962	33.155490204255	0
6	992	34.155490204255	1
6	993	34.155490204255	0
6	1032	35.155490204255	1
6	1033	35.155490204255	0
6	1072	36.155490204255	1
6	1073	36.155490204255	0
6	1109	37.155490204255	1
6	1110	37.155490204255	0
6	1140	38.155490204255	1
6	1141	38.155490204255	0
6	1168	39.155490204255	1
6	1169	39.155490204255	0
6	1202	40.155490204255	1
6	1203	40.155490204255	0
6	1239	41.155490204255	1
6	1240	41.155490204255	0
6	1273	42.155490204255	1
6	1274	42.155490204255	0
6	1310	43.155490204255	1
6	1311	43.155490204255	0
6	1341	44.155490204255	1
6	1342	44.155490204255	0
6	1372	45.155490204255	1
6	1373	45.155490204255	0
6	1403	46.155490204255	1
6	1404	46.155490204255	0
6	1442	47.155490204255	1
6	1443	47.155490204255	0
6	1471	48.155490204255	1
6	1472	48.155490204255	0
6	1510	49.155490204255	1
6	1511	49.155490204255	0
6	1544	50.155490204255	1
6	1545	50.155490204255	0
6	1575	51.155490204255	1
6	1576	51.155490204255	0
6	1603	52.155490204255	1
6	1604	52.155490204255	0
6	1631	53.155490204255	1
6	1632	53.155490204255	0
6	1665	54.155490204255	1
6	1666	54.155490204255	0
6	1702	55.155490204255	1
6	1703	55.155490204255	0
6	1736	56.155490204255	1
6	1737	56.155490204255	0
6	1767	57.155490204255	1
6	1768	57.155490204255	0
6	1801	58.155490204255	1
6	1802	58.155490204255	0
6	1835	59.155490204255	1
6	1836	59.155490204255	0
6	1869	60.155490204255	1
6	1870	60.155490204255	0
6	1910	61.155490204255	1
6	1911	61.155490204255	0
6	1944	62.155490204255	1
6	1945	62.155490204255	0
6	1984	63.155490204255	1
6	1985	63.155490204255	0
6	2015	64.155490204255	1
6	2016	64.155490204255	0
6	2046	65.155490204255	1
6	2047	65.155490204255	0
6	2086	66.155490204255	1
6	2087	66.155490204255	0
6	2117	67.155490204255	1
6	2118	67.155490204255	0
6	2148	68.155490204255	1
6	2149	68.155490204255	0
6	2185	69.155490204255	1
6	2186	69.155490204255	0
6	2213	70.155490204255	1
6	2214	70.155490204255	0
6	2241	71.155490204255	1
6	2242	71.155490204255	0
6	2272	72.155490204255	1
6	2273	72.155490204255	0
6	2302	73.155490204255	1
6	2303	73.155490204255	0
6	2334	74.155490204255	1
6	2335	74.155490204255	0
6	2361	75.155490204255	1
6	2362	75.155490204255	0
6	2392	76.155490204255	1
6	2393	76.155490204255	0
6	2424	77.155490204255	1
6	2425	77.155490204255	0
6	2455	78.155490204255	1
6	2456	78.155490204255	0
6	2480	79.155490204255	1
6	2481	79.155490204255	0
6	2510	80.155490204255	1
6	2511	80.155490204255	0
6	2544	81.155490204255	1
6	2545	81.155490204255	0
6	2578	82.155490204255	1
6	2579	82.155490204255	0
6	2609	83.155490204255	1
6	2610	83.155490204255	0
6	2643	84.155490204255	1
6	2644	84.155490204255	0
6	2677	85.155490204255	1
6	2678	85.155490204255	0
6	2714	86.155490204255	1
6	2715	86.155490204255	0
6	2745	87.155490204255	1
6	2746	87.155490204255	0
6	2782	88.155490204255	1
6	2783	88.155490204255	0
6	2810	89.155490204255	1
6	2811	89.155490204255	0
6	2847	90.155490204255	1
6	2848	90.155490204255	0
6	2881	91.155490204255	1
6	2882	91.155490204255	0
6	2915	92.155490204255	1
6	2916	92.155490204255	0
6	2952	93.155490204255	1
6	2953	93.155490204255	0
6	2983	94.155490204255	1
6	2984	94.155490204255	0
6	3014	95.155490204255	1
6	3015	95.155490204255	0
6	3057	96.155490204255	1
6	3058	96.155490204255	0
6	3094	97.155490204255	1
6	3095	97.155490204255	0
6	3137	98.155490204255	1
6	3138	98.155490204255	0
6	3171	99.155490204255	1
6	3172	99.155490204255	0
6	3205	100.155490204255	1
6	3206	100.155490204255	0
6	3242	101.155490204255	1
6	3243	101.155490204255	0
6	3276	102.155490204255	1
6	3277	102.155490204255	0
6	3304	103.155490204255	1
6	3305	103.155490204255	0
6	3335	104.155490204255	1
6	3336	104.155490204255	0
6	3372	105.155490204255	1
6	3373	105.155490204255	0
6	3406	106.155490204255	1
6	3407	106.155490204255	0
6	3440	107.155490204255	1
6	3441	107.155490204255	0
6	3471	108.155490204255	1
6	3472	108.155490204255	0
6	3499	109.155490204255	1
6	3500	109.155490204255	0
6	3530	110.155490204255	1
6	3531	110.155490204255	0
6	3570	111.155490204255	1
6	3571	111.155490204255	0
6	3598	112.155490204255	1
6	3599	112.155490204255	0
6	3629	113.155490204255	1
6	3630	113.155490204255	0
6	3663	114.155490204255	1
6	3664	114.155490204255	0
6	3697	115.155490204255	1
6	3698	115.155490204255	0
6	3728	116.155490204255	1
6	3729	116.155490204255	0
6	3765	117.155490204255	1
6	3766	117.155490204255	0
6	3799	118.155490204255	1
6	3800	118.155490204255	0
6	3833	119.155490204255	1
6	3834	119.155490204255	0
6	3864	120.155490204255	1
6	3865	120.155490204255	0
6	3892	121.155490204255	1
6	3893	121.155490204255	0
6	3923	122.155490204255	1
6	3924	122.155490204255	0
6	3957	123.155490204255	1
6	3958	123.155490204255	0
6	3991	124.155490204255	1
6	3992	124.155490204255	0
6	4028	125.155490204255	1
6	4029	125.155490204255	0
6	4059	126.155490204255	1
6	4060	126.155490204255	0
6	4093	127.155490204255	1
6	4094	127.155490204255	0
6	4128	128.155490204255	1
6	4129	128.155490204255	0
6	4168	129.155490204255	1
6	4169	129.155490204255	0
6	4202	130.155490204255	1
6	4203	130.155490204255	0
6	4242	131.155490204255	1
6	4243	131.155490204255	0
6	4276	132.155490204255	1
6	4277	132.155490204255	0
6	4316	133.155490204255	1
6	4317	133.155490204255	0
6	4350	134.155490204255	1
6	4351	134.155490204255	0
6	4387	135.155490204255	1
6	4388	135.155490204255	0
6	4424	136.155490204255	1
6	4425	136.155490204255	0
6	4458	137.155490204255	1
6	4459	137.155490204255	0
6	4492	138.155490204255	1
6	4493	138.155490204255	0
6	4526	139.155490204255	1
6	4527	139.155490204255	0
6	4560	140.155490204255	1
6	4561	140.155490204255	0
6	4600	141.155490204255	1
6	4601	141.155490204255	0
6	4628	142.155490204255	1
6	4629	142.155490204255	0
6	4656	143.155490204255	1
6	4657	143.155490204255	0
6	4690	144.155490204255	1
6	4691	144.155490204255	0
6	4721	145.155490204255	1
6	4722	145.155490204255	0
6	4755	146.155490204255	1
6	4756	146.155490204255	0
6	4798	147.155490204255	1
6	4799	147.155490204255	0
6	4826	148.155490204255	1
6	4827	148.155490204255	0
6	4863	149.155490204255	1
6	4864	149.155490204255	0
6	4891	150.155490204255	1
6	4892	150.155490204255	0
6	4925	151.155490204255	1
6	4926	151.155490204255	0
6	4953	152.155490204255	1
6	4954	152.155490204255	0
6	4981	153.155490204255	1
6	4982	153.155490204255	0
6	5012	154.155490204255	1
6	5013	154.155490204255	0
6	5040	155.155490204255	1
6	5041	155.155490204255	0
6	5080	156.155490204255	1
6	5081	156.155490204255	0
6	5120	157.155490204255	1
6	5121	157.155490204255	0
6	5148	158.155490204255	1
6	5149	158.155490204255	0
6	5182	159.155490204255	1
6	5183	159.155490204255	0
6	5210	160.155490204255	1
6	5211	160.155490204255	0
6	5256	161.155490204255	1
6	5257	161.155490204255	0
6	5290	162.155490204255	1
6	5291	162.155490204255	0
6	5324	163.155490204255	1
6	5325	163.155490204255	0
6	5355	164.155490204255	1
6	5356	164.155490204255	0
6	5386	165.155490204255	1
6	5387	165.155490204255	0
6	5426	166.155490204255	1
6	5427	166.155490204255	0
6	5454	167.155490204255	1
6	5455	167.155490204255	0
6	5488	168.155490204255	1
6	5489	168.155490204255	0
6	5516	169.155490204255	1
6	5517	169.155490204255	0
6	5559	170.155490204255	1
6	5560	170.155490204255	0
6	5590	171.155490204255	1
6	5591	171.155490204255	0
6	5618	172.155490204255	1
6	5619	172.155490204255	0
6	5655	173.155490204255	1
6	5656	173.155490204255	0
6	5689	174.155490204255	1
6	5690	174.155490204255	0
6	5741	175.155490204255	1
6	5742	175.155490204255	0
6	5775	176.155490204255	1
6	5776	176.155490204255	0
6	5809	177.155490204255	1
6	5810	177.155490204255	0
6	5840	178.155490204255	1
6	5841	178.155490204255	0
6	5868	179.155490204255	1
6	5869	179.155490204255	0
6	5899	180.155490204255	1
6	5900	180.155490204255	0
6	5933	181.155490204255	1
6	5934	181.155490204255	0
6	5973	182.155490204255	1
6	5974	182.155490204255	0
6	6010	183.155490204255	1
6	6011	183.155490204255	0
6	6044	184.155490204255	1
6	6045	184.155490204255	0
6	6078	185.155490204255	1
6	6079	185.155490204255	0
6	6106	186.155490204255	1
6	6107	186.155490204255	0
6	6134	187.155490204255	1
6	6135	187.155490204255	0
6	6168	188.155490204255	1
6	6169	188.155490204255	0
6	6202	189.155490204255	1
6	6203	189.155490204255	0
6	6236	190.155490204255	1
6	6237	190.155490204255	0
6	6267	191.155490204255	1
6	6268	191.155490204255	0
6	6298	192.155490204255	1
6	6299	192.155490204255	0
6	6329	193.155490204255	1
6	6330	193.155490204255	0
6	6363	194.155490204255	1
6	6364	194.155490204255	0
6	6400	195.155490204255	1
6	6401	195.155490204255	0
6	6443	196.155490204255	1
6	6444	196.155490204255	0
6	6474	197.155490204255	1
6	6475	197.155490204255	0
6	6505	198.155490204255	1
6	6506	198.155490204255	0
6	6535	199.155490204255	1
6	6536	199.155490204255	0
7	37	0.0077	1
7	38	0.0077	0
7	74	2.898760388484	1
7	75	2.898760388484	0
7	94	3.898760388484	1
7	95	3.898760388484	0
7	144	5.773528855839	1
7	145	5.773528855839	0
7	181	6.773528855839	1
7	182	6.773528855839	0
7	209	7.773528855839	1
7	210	7.773528855839	0
7	239	8.773528855839	1
7	240	8.773528855839	0
7	268	9.773528855839	1
7	269	9.773528855839	0
7	295	10.773528855839	1
7	296	10.773528855839	0
7	325	11.773528855839	1
7	326	11.773528855839	0
7	373	13.082064138406	1
7	374	13.082064138406	0
7	398	14.082064138406	1
7	399	14.082064138406	0
7	434	15.082064138406	1
7	435	15.082064138406	0
7	496	16.482540368894	1
7	497	16.482540368894	0
7	521	17.482540368894	1
7	522	17.482540368894	0
7	552	18.482540368894	1
7	553	18.482540368894	0
7	589	19.482540368894	1
7	590	19.482540368894	0
7	617	20.482540368894	1
7	618	20.482540368894	0
7	647	21.482540368894	1
7	648	21.482540368894	0
7	686	23.294639399622	1
7	687	23.294639399622	0
7	705	24.294639399622	1
7	706	24.294639399622	0
7	734	25.541588129362	1
7	735	25.541588129362	0
7	780	27.155590204255	1
7	781	27.155590204255	0
7	804	28.155590204255	1
7	805	28.155590204255	0
7	840	29.155590204255	1
7	841	29.155590204255	0
7	867	30.155590204255	1
7	868	30.155590204255	0
7	898	31.155590204255	1
7	899	31.155590204255	0
7	931	32.155590204255	1
7	932	32.155590204255	0
7	966	33.155590204255	1
7	967	33.155590204255	0
7	997	34.155590204255	1
7	998	34.155590204255	0
7	1037	35.155590204255	1
7	1038	35.155590204255	0
7	1077	36.155590204255	1
7	1078	36.155590204255	0
7	1114	37.155590204255	1
7	1115	37.155590204255	0
7	1145	38.155590204255	1
7	1146	38.155590204255	0
7	1173	39.155590204255	1
7	1174	39.155590204255	0
7	1207	40.155590204255	1
7	1208	40.155590204255	0
7	1244	41.155590204255	1
7	1245	41.155590204255	0
7	1278	42.155590204255	1
7	1279	42.155590204255	0
7	1315	43.155590204255	1
7	1316	43.155590204255	0
7	1346	44.155590204255	1
7	1347	44.155590204255	0
7	1377	45.155590204255	1
7	1378	45.155590204255	0
7	1408	46.155590204255	1
7	1409	46.155590204255	0
7	1447	47.155590204255	1
7	1448	47.155590204255	0
7	1476	48.155590204255	1
7	1477	48.155590204255	0
7	1515	49.155590204255	1
7	1516	49.155590204255	0
7	1549	50.155590204255	1
7	1550	50.155590204255	0
7	1580	51.155590204255	1
7	1581	51.155590204255	0
7	1608	52.155590204255	1
7	1609	52.155590204255	0
7	1636	53.155590204255	1
7	1637	53.155590204255	0
7	1670	54.155590204255	1
7	1671	54.155590204255	0
7	1707	55.155590204255	1
7	1708	55.155590204255	0
7	1741	56.155590204255	1
7	1742	56.155590204255	0
7	1772	57.155590204255	1
7	1773	57.155590204255	0
7	1806	58.155590204255	1
7	1807	58.155590204255	0
7	1840	59.155590204255	1
7	1841	59.155590204255	0
7	1874	60.155590204255	1
7	1875	60.155590204255	0
7	1915	61.155590204255	1
7	1916	61.155590204255	0
7	1949	62.155590204255	1
7	1950	62.155590204255	0
7	1989	63.155590204255	1
7	1990	63.155590204255	0
7	2020	64.155590204255	1
7	2021	64.155590204255	0
7	2051	65.155590204255	1
7	2052	65.155590204255	0
7	2091	66.155590204255	1
7	2092	66.155590204255	0
7	2122	67.155590204255	1
7	2123	67.155590204255	0
7	2153	68.155590204255	1
7	2154	68.155590204255	0
7	2190	69.155590204255	1
7	2191	69.155590204255	0
7	2218	70.155590204255	1
7	2219	70.155590204255	0
7	2246	71.155590204255	1
7	2247	71.155590204255	0
7	2277	72.155590204255	1
7	2278	72.155590204255	0
7	2307	73.155590204255	1
7	2308	73.155590204255	0
7	2339	74.155590204255	1
7	2340	74.155590204255	0
7	2366	75.155590204255	1
7	2367	75.155590204255	0
7	2397	76.155590204255	1
7	2398	76.155590204255	0
7	2429	77.155590204255	1
7	2430	77.155590204255	0
7	2460	78.155590204255	1
7	2461	78.155590204255	0
7	2485	79.155590204255	1
7	2486	79.155590204255	0
7	2515	80.155590204255	1
7	2516	80.155590204255	0
7	2549	81.155590204255	1
7	2550	81.155590204255	0
7	2583	82.155590204255	1
7	2584	82.155590204255	0
7	2614	83.155590204255	1
7	2615	83.155590204255	0
7	2648	84.155590204255	1
7	2649	84.155590204255	0
7	2682	85.155590204255	1
7	2683	85.155590204255	0
7	2719	86.155590204255	1
7	2720	86.155590204255	0
7	2750	87.155590204255	1
7	2751	87.155590204255	0
7	2787	88.155590204255	1
7	2788	88.155590204255	0
7	2815	89.155590204255	1
7	2816	89.155590204255	0
7	2852	90.155590204255	1
7	2853	90.155590204255	0
7	2886	91.155590204255	1
7	2887	91.155590204255	0
7	2920	92.155590204255	1
7	2921	92.155590204255	0
7	2957	93.155590204255	1
7	2958	93.155590204255	0
7	2988	94.155590204255	1
7	2989	94.155590204255	0
7	3019	95.155590204255	1
7	3020	95.155590204255	0
7	3062	96.155590204255	1
7	3063	96.155590204255	0
7	3099	97.155590204255	1
7	3100	97.155590204255	0
7	3142	98.155590204255	1
7	3143	98.155590204255	0
7	3176	99.155590204255	1
7	3177	99.155590204255	0
7	3210	100.155590204255	1
7	3211	100.155590204255	0
7	3247	101.155590204255	1
7	3248	101.155590204255	0
7	3281	102.155590204255	1
7	3282	102.155590204255	0
7	3309	103.155590204255	1
7	3310	103.155590204255	0
7	3340	104.155590204255	1
7	3341	104.155590204255	0
7	3377	105.155590204255	1
7	3378	105.155590204255	0
7	3411	106.155590204255	1
7	3412	106.155590204255	0
7	3445	107.155590204255	1
7	3446	107.155590204255	0
7	3476	108.155590204255	1
7	3477	108.155590204255	0
7	3504	109.155590204255	1
7	3505	109.155590204255	0
7	3535	110.155590204255	1
7	3536	110.155590204255	0
7	3575	111.155590204255	1
7	3576	111.155590204255	0
7	3603	112.155590204255	1
7	3604	112.155590204255	0
7	3634	113.155590204255	1
7	3635	113.155590204255	0
7	3668	114.155590204255	1
7	3669	114.155590204255	0
7	3702	115.155590204255	1
7	3703	115.155590204255	0
7	3733	116.155590204255	1
7	3734	116.155590204255	0
7	3770	117.155590204255	1
7	3771	117.155590204255	0
7	3804	118.155590204255	1
7	3805	118.155590204255	0
7	3838	119.155590204255	1
7	3839	119.155590204255	0
7	3869	120.155590204255	1
7	3870	120.155590204255	0
7	3897	121.155590204255	1
7	3898	121.155590204255	0
7	3928	122.155590204255	1
7	3929	122.155590204255	0
7	3962	123.155590204255	1
7	3963	123.155590204255	0
7	3996	124.155590204255	1
7	3997	124.155590204255	0
7	4033	125.155590204255	1
7	4034	125.155590204255	0
7	4064	126.155590204255	1
7	4065	126.155590204255	0
7	4098	127.155590204255	1
7	4099	127.155590204255	0
7	4133	128.155590204255	1
7	4134	128.155590204255	0
7	4173	129.155590204255	1
7	4174	129.155590204255	0
7	4207	130.155590204255	1
7	4208	130.155590204255	0
7	4247	131.155590204255	1
7	4248	131.155590204255	0
7	4281	132.155590204255	1
7	4282	132.155590204255	0
7	4321	133.155590204255	1
7	4322	133.155590204255	0
7	4355	134.155590204255	1
7	4356	134.155590204255	0
7	4392	135.155590204255	1
7	4393	135.155590204255	0
7	4429	136.155590204255	1
7	4430	136.155590204255	0
7	4463	137.155590204255	1
7	4464	137.155590204255	0
7	4497	138.155590204255	1
7	4498	138.155590204255	0
7	4531	139.155590204255	1
7	4532	139.155590204255	0
7	4565	140.155590204255	1
7	4566	140.155590204255	0
7	4605	141.155590204255	1
7	4606	141.155590204255	0
7	4633	142.155590204255	1
7	4634	142.155590204255	0
7	4661	143.155590204255	1
7	4662	143.155590204255	0
7	4695	144.155590204255	1
7	4696	144.155590204255	0
7	4726	145.155590204255	1
7	4727	145.155590204255	0
7	4760	146.155590204255	1
7	4761	146.155590204255	0
7	4803	147.155590204255	1
7	4804	147.155590204255	0
7	4831	148.155590204255	1
7	4832	148.155590204255	0
7	4868	149.155590204255	1
7	4869	149.155590204255	0
7	4896	150.155590204255	1
7	4897	150.155590204255	0
7	4930	151.155590204255	1
7	4931	151.155590204255	0
7	4958	152.155590204255	1
7	4959	152.155590204255	0
7	4986	153.155590204255	1
7	4987	153.155590204255	0
7	5017	154.155590204255	1
7	5018	154.155590204255	0
7	5045	155.155590204255	1
7	5046	155.155590204255	0
7	5085	156.155590204255	1
7	5086	156.155590204255	0
7	5125	157.155590204255	1
7	5126	157.155590204255	0
7	5153	158.155590204255	1
7	5154	158.155590204255	0
7	5187	159.155590204255	1
7	5188	159.155590204255	0
7	5215	160.155590204255	1
7	5216	160.155590204255	0
7	5261	161.155590204255	1
7	5262	161.155590204255	0
7	5295	162.155590204255	1
7	5296	162.155590204255	0
7	5329	163.155590204255	1
7	5330	163.155590204255	0
7	5360	164.155590204255	1
7	5361	164.155590204255	0
7	5391	165.155590204255	1
7	5392	165.155590204255	0
7	5431	166.155590204255	1
7	5432	166.155590204255	0
7	5459	167.155590204255	1
7	5460	167.155590204255	0
7	5493	168.155590204255	1
7	5494	168.155590204255	0
7	5521	169.155590204255	1
7	5522	169.155590204255	0
7	5564	170.155590204255	1
7	5565	170.155590204255	0
7	5595	171.155590204255	1
7	5596	171.155590204255	0
7	5623	172.155590204255	1
7	5624	172.155590204255	0
7	5660	173.155590204255	1
7	5661	173.155590204255	0
7	5694	174.155590204255	1
7	5695	174.155590204255	0
7	5746	175.155590204255	1
7	5747	175.155590204255	0
7	5780	176.155590204255	1
7	5781	176.155590204255	0
7	5814	177.155590204255	1
7	5815	177.155590204255	0
7	5845	178.155590204255	1
7	5846	178.155590204255	0
7	5873	179.155590204255	1
7	5874	179.155590204255	0
7	5904	180.155590204255	1
7	5905	180.155590204255	0
7	5938	181.155590204255	1
7	5939	181.155590204255	0
7	5978	182.155590204255	1
7	5979	182.155590204255	0
7	6015	183.155590204255	1
7	6016	183.155590204255	0
7	6049	184.155590204255	1
7	6050	184.155590204255	0
7	6083	185.155590204255	1
7	6084	185.155590204255	0
7	6111	186.155590204255	1
7	6112	186.155590204255	0
7	6139	187.155590204255	1
7	6140	187.155590204255	0
7	6173	188.155590204255	1
7	6174	188.155590204255	0
7	6207	189.155590204255	1
7	6208	189.155590204255	0
7	6241	190.155590204255	1
7	6242	190.155590204255	0
7	6272	191.155590204255	1
7	6273	191.155590204255	0
7	6303	192.155590204255	1
7	6304	192.155590204255	0
7	6334	193.155590204255	1
7	6335	193.155590204255	0
7	6368	194.155590204255	1
7	6369	194.155590204255	0
7	6405	195.155590204255	1
7	6406	195.155590204255	0
7	6448	196.155590204255	1
7	6449	196.155590204255	0
7	6479	197.155590204255	1
7	6480	197.155590204255	0
7	6510	198.155590204255	1
7	6511	198.155590204255	0
7	6540	199.155590204255	1
7	6541	199.155590204255	0
8	51	1.859604212075	1
8	52	1.859604212075	0
8	60	2.646805352057	1
8	61	2.859604212075	0
8	104	4.52576940626	1
8	105	4.52576940626	0
8	134	5.563928706924	1
8	135	5.563928706924	0
8	155	6.139447903807	1
8	167	6.563928706924	0
8	216	8.362972325843	1
8	217	8.362972325843	0
8	229	8.681328466685	1
8	246	9.164930571633	2
8	247	9.362972325843	1
8	275	9.814376919884	2
8	276	10.362972325843	1
8	304	11.362972325843	0
8	320	11.486588120209	1
8	340	12.14047068743	2
8	341	12.362972325843	1
8	357	12.639342696446	2
8	375	13.362972325843	1
8	403	14.362972325843	0
8	441	15.237596782295	1
8	444	15.258022370694	2
8	445	15.362972325843	1
8	466	15.717270507949	2
8	474	16.362972325843	1
8	498	17.362972325843	0
8	528	17.504758171388	1
8	529	18.362972325843	0
8	559	19.010542430025	1
8	562	19.16177328369	2
8	566	19.362972325843	1
8	594	20.362972325843	0
8	624	21.202087541632	1
8	629	21.362972325843	0
8	721	25.047309410774	1
8	722	25.047309410774	0
8	738	25.666238870401	1
8	742	26.047309410774	0
8	784	27.182774844391	1
8	785	27.182774844391	0
8	816	28.20420671874	1
8	817	28.20420671874	0
8	830	29.076527913782	1
8	850	29.20420671874	0
8	920	31.970948391769	1
8	921	31.970948391769	0
8	948	32.6126430938	1
8	952	32.970948391769	0
8	986	34.100897919552	1
8	987	34.100897919552	0
8	1004	34.344946410289	1
8	1023	35.100897919552	0
8	1047	35.185281115901	1
8	1050	35.347417605347	2
8	1055	36.100897919552	1
8	1084	36.294414282522	2
8	1091	37.100897919552	1
8	1121	37.25396225989	2
8	1122	38.100897919552	1
8	1150	39.100897919552	0
8	1180	39.582875634104	1
8	1184	40.100897919552	0
8	1217	40.728014588804	1
8	1221	41.100897919552	0
8	1254	41.677509172301	1
8	1255	42.100897919552	0
8	1285	42.873616971758	1
8	1288	42.978178197533	2
8	1291	43.040293487999	3
8	1292	43.100897919552	2
8	1323	44.100897919552	1
8	1354	45.100897919552	0
8	1415	46.540507172454	1
8	1416	46.540507172454	0
8	1419	46.727933238472	1
8	1422	46.964139944555	2
8	1454	47.407543973176	3
8	1455	47.540507172454	2
8	1462	47.786505937459	3
8	1484	48.540507172454	2
8	1496	48.72256749723	3
8	1502	49.115680054534	4
8	1505	49.154863210947	5
8	1520	49.540507172454	4
8	1536	49.732187521754	5
8	1554	50.540507172454	4
8	1570	50.738058526921	5
8	1585	51.540507172454	4
8	1613	52.540507172454	3
8	1641	53.540507172454	2
8	1657	53.931005168975	3
8	1660	54.038640277131	4
8	1681	54.540507172454	3
8	1697	55.096466690483	4
8	1714	55.272380235909	5
8	1718	55.540507172454	4
8	1746	56.540507172454	3
8	1780	57.540507172454	2
8	1814	58.540507172454	1
8	1848	59.540507172454	0
8	1895	60.632480586152	1
8	1896	60.632480586152	0
8	1902	60.805608042298	1
8	1905	60.92256345209	2
8	1932	61.632480586152	1
8	1939	62.045731753623	2
8	1962	62.427287596997	3
8	1967	62.632480586152	2
8	1979	62.646168193504	3
8	1994	63.632480586152	2
8	2028	64.632480586152	1
8	2059	65.632480586152	0
8	2075	65.633358085356	1
8	2078	65.647022663787	2
8	2081	65.749167545312	3
8	2096	66.632480586152	2
8	2112	66.724269479468	3
8	2130	67.632480586152	2
8	2166	68.544088398752	3
8	2167	68.632480586152	2
8	2195	69.632480586152	1
8	2223	70.632480586152	0
8	2284	72.293119858336	1
8	2285	72.293119858336	0
8	2297	72.925456454732	1
8	2312	73.293119858336	0
8	2323	73.638040048065	1
8	2344	74.293119858336	0
8	2440	77.399967332569	1
8	2441	77.399967332569	0
8	2447	77.732377573533	1
8	2450	77.860434338844	2
8	2467	78.305853800764	3
8	2468	78.399967332569	2
8	2475	78.657029890145	3
8	2492	79.312676174509	4
8	2493	79.399967332569	3
8	2505	79.439064810934	4
8	2520	80.399967332569	3
8	2536	80.605938337483	4
8	2539	80.988639286345	5
8	2554	81.399967332569	4
8	2588	82.399967332569	3
8	2604	83.112876483347	4
8	2621	83.179173884829	5
8	2622	83.399967332569	4
8	2638	83.423569332911	5
8	2653	84.399967332569	4
8	2672	84.602758859976	5
8	2687	85.399967332569	4
8	2706	85.438856391946	5
8	2709	85.747271232044	6
8	2724	86.399967332569	5
8	2740	86.458519169261	6
8	2757	87.199278119708	7
8	2758	87.399967332569	6
8	2792	88.399967332569	5
8	2820	89.399967332569	4
8	2836	89.684860476685	5
8	2857	90.399967332569	4
8	2873	90.542756117759	5
8	2876	90.868096533288	6
8	2893	91.251656747387	7
8	2896	91.261057498051	8
8	2897	91.399967332569	7
8	2927	92.361903408142	8
8	2928	92.399967332569	7
8	2962	93.399967332569	6
8	2995	94.209231059144	7
8	2996	94.399967332569	6
8	3027	95.399967332569	5
8	3049	96.050513530631	6
8	3067	96.399967332569	5
8	3083	96.557713653888	6
8	3109	97.362511053689	7
8	3110	97.399967332569	6
8	3126	97.824241949733	7
8	3129	97.828948490225	8
8	3132	97.987289996456	9
8	3147	98.399967332569	8
8	3166	99.119924138428	9
8	3181	99.399967332569	8
8	3197	99.434645799283	9
8	3215	100.399967332569	8
8	3231	100.65115445272	9
8	3234	100.991501190955	10
8	3252	101.399967332569	9
8	3286	102.399967332569	8
8	3317	103.399967332569	7
8	3350	104.26664436867	8
8	3351	104.399967332569	7
8	3384	105.163235239456	8
8	3385	105.399967332569	7
8	3401	106.01245605102	8
8	3416	106.399967332569	7
8	3435	107.031114781039	8
8	3453	107.399967332569	7
8	3481	108.399967332569	6
8	3511	109.252621679513	7
8	3512	109.399967332569	6
8	3545	110.392229643046	7
8	3546	110.399967332569	6
8	3565	110.988609037376	7
8	3580	111.399967332569	6
8	3608	112.399967332569	5
8	3639	113.399967332569	4
8	3673	114.399967332569	3
8	3692	114.83161562062	4
8	3707	115.399967332569	3
8	3738	116.399967332569	2
8	3757	116.512537825166	3
8	3775	117.399967332569	2
8	3791	117.63781984201	3
8	3794	117.92523031808	4
8	3809	118.399967332569	3
8	3825	118.795766144406	4
8	3845	119.171504986813	5
8	3846	119.399967332569	4
8	3874	120.399967332569	3
8	3905	121.399967332569	2
8	3936	122.399967332569	1
8	3952	122.535875439864	2
8	3970	123.399967332569	1
8	3986	123.827784708665	2
8	4004	124.399967332569	1
8	4020	124.523584169565	2
8	4041	125.399967332569	1
8	4069	126.399967332569	0
8	4122	127.649052527223	1
8	4123	127.649052527223	0
8	4152	128.58145540763	1
8	4155	128.600835188978	2
8	4156	128.649052527223	1
8	4180	129.235962904609	2
8	4188	129.649052527223	1
8	4214	130.495006421873	2
8	4218	130.649052527223	1
8	4234	130.834671154455	2
8	4254	131.318306841044	3
8	4255	131.649052527223	2
8	4289	132.649052527223	1
8	4305	132.701286047581	2
8	4308	132.846860026029	3
8	4311	132.955407124524	4
8	4328	133.309631256769	5
8	4331	133.406554011346	6
8	4332	133.649052527223	5
8	4362	134.250442483937	6
8	4366	134.649052527223	5
8	4382	134.687470497711	6
8	4402	135.49002248347	7
8	4405	135.524225901828	8
8	4406	135.649052527223	7
8	4439	136.583235287209	8
8	4440	136.649052527223	7
8	4470	137.639084895869	8
8	4471	137.649052527223	7
8	4487	138.026214988018	8
8	4504	138.590825489139	9
8	4505	138.649052527223	8
8	4521	138.840906984117	9
8	4536	139.649052527223	8
8	4576	140.649052527223	7
8	4595	141.109540976809	8
8	4610	141.649052527223	7
8	4638	142.649052527223	6
8	4668	143.334455634034	7
8	4671	143.636021547257	8
8	4672	143.649052527223	7
8	4700	144.649052527223	6
8	4733	145.276919125184	7
8	4734	145.649052527223	6
8	4770	146.493938620521	7
8	4776	146.598820456121	8
8	4777	146.649052527223	7
8	4793	147.033166112065	8
8	4808	147.649052527223	7
8	4838	148.285773636977	8
8	4839	148.649052527223	7
8	4855	148.9192362547	8
8	4873	149.649052527223	7
8	4901	150.649052527223	6
8	4935	151.649052527223	5
8	4963	152.649052527223	4
8	4994	153.649052527223	3
8	5022	154.649052527223	2
8	5056	155.649052527223	1
8	5072	155.684626774637	2
8	5092	156.394544701861	3
8	5095	156.577083303744	4
8	5096	156.649052527223	3
8	5115	156.709267013359	4
8	5130	157.649052527223	3
8	5163	158.593195899945	4
8	5164	158.649052527223	3
8	5192	159.649052527223	2
8	5225	160.239915001272	3
8	5226	160.649052527223	2
8	5248	161.081795963004	3
8	5251	161.115582748556	4
8	5268	161.187258132869	5
8	5272	161.649052527223	4
8	5303	162.649052527223	3
8	5337	163.649052527223	2
8	5368	164.649052527223	1
8	5398	165.237104971674	2
8	5401	165.289017523857	3
8	5405	165.649052527223	2
8	5436	166.649052527223	1
8	5466	167.301790260063	2
8	5469	167.318558026055	3
8	5470	167.649052527223	2
8	5498	168.649052527223	1
8	5528	169.255135263546	2
8	5531	169.517464572712	3
8	5534	169.52924780463	4
8	5538	169.649052527223	3
8	5569	170.649052527223	2
8	5585	170.977041886618	3
8	5600	171.649052527223	2
8	5630	172.286340250641	3
8	5631	172.649052527223	2
8	5668	173.649052527223	1
8	5684	173.672631602662	2
8	5704	174.345092119496	3
8	5711	174.649052527223	2
8	5727	174.759071042169	3
8	5730	174.77776651259	4
8	5736	174.965285463793	5
8	5753	175.587882807771	6
8	5754	175.649052527223	5
8	5770	175.841388512914	6
8	5788	176.649052527223	5
8	5819	177.649052527223	4
8	5835	177.917419573357	5
8	5850	178.649052527223	4
8	5878	179.649052527223	3
8	5911	180.549638435906	4
8	5915	180.649052527223	3
8	5949	181.649052527223	2
8	5965	181.768435239249	3
8	5968	181.948392580801	4
8	5985	182.641592350339	5
8	5986	182.649052527223	4
8	6022	183.613074508434	5
8	6023	183.649052527223	4
8	6057	184.649052527223	3
8	6073	184.814045414976	4
8	6088	185.649052527223	3
8	6116	186.649052527223	2
8	6146	187.535393670889	3
8	6147	187.649052527223	2
8	6163	187.846361475859	3
8	6178	188.649052527223	2
8	6194	188.798191183401	3
8	6212	189.649052527223	2
8	6231	189.934787678658	3
8	6246	190.649052527223	2
8	6262	190.826166255568	3
8	6277	191.649052527223	2
8	6310	192.215843319344	3
8	6311	192.649052527223	2
8	6345	193.649052527223	1
8	6376	194.649052527223	0
8	6415	195.553777653198	1
8	6419	195.649052527223	0
8	6435	195.759809701681	1
8	6453	196.649052527223	0
8	6517	198.64888529358	1
8	6518	198.64888529358	0
8	6547	199.323129863216	1
8	6550	199.581142627156	2
8	6551	199.64888529358	1
9	64	2.859704212075	1
9	65	2.859704212075	0
9	84	3.859704212075	1
9	85	3.859704212075	0
9	130	5.52586940626	1
9	131	5.52586940626	0
9	170	6.564028706924	1
9	171	6.564028706924	0
9	194	7.564028706924	1
9	195	7.564028706924	0
9	250	9.363072325843	1
9	251	9.363072325843	0
9	280	10.363072325843	1
9	281	10.363072325843	0
9	308	11.363072325843	1
9	309	11.363072325843	0
9	345	12.363072325843	1
9	346	12.363072325843	0
9	379	13.363072325843	1
9	380	13.363072325843	0
9	407	14.363072325843	1
9	408	14.363072325843	0
9	449	15.363072325843	1
9	450	15.363072325843	0
9	478	16.363072325843	1
9	479	16.363072325843	0
9	502	17.363072325843	1
9	503	17.363072325843	0
9	533	18.363072325843	1
9	534	18.363072325843	0
9	570	19.363072325843	1
9	571	19.363072325843	0
9	598	20.363072325843	1
9	599	20.363072325843	0
9	633	21.363072325843	1
9	634	21.363072325843	0
9	664	22.363072325843	1
9	665	22.363072325843	0
9	745	26.047409410774	1
9	746	26.047409410774	0
9	763	27.047409410774	1
9	764	27.047409410774	0
9	812	28.182874844391	1
9	813	28.182874844391	0
9	853	29.20430671874	1
9	854	29.20430671874	0
9	880	30.20430671874	1
9	881	30.20430671874	0
9	955	32.971048391769	1
9	956	32.971048391769	0
9	975	33.971048391769	1
9	976	33.971048391769	0
9	1026	35.100997919552	1
9	1027	35.100997919552	0
9	1059	36.100997919552	1
9	1060	36.100997919552	0
9	1095	37.100997919552	1
9	1096	37.100997919552	0
9	1126	38.100997919552	1
9	1127	38.100997919552	0
9	1154	39.100997919552	1
9	1155	39.100997919552	0
9	1188	40.100997919552	1
9	1189	40.100997919552	0
9	1225	41.100997919552	1
9	1226	41.100997919552	0
9	1259	42.100997919552	1
9	1260	42.100997919552	0
9	1296	43.100997919552	1
9	1297	43.100997919552	0
9	1327	44.100997919552	1
9	1328	44.100997919552	0
9	1358	45.100997919552	1
9	1359	45.100997919552	0
9	1389	46.100997919552	1
9	1390	46.100997919552	0
9	1458	47.540607172454	1
9	1459	47.540607172454	0
9	1488	48.540607172454	1
9	1489	48.540607172454	0
9	1524	49.540607172454	1
9	1525	49.540607172454	0
9	1558	50.540607172454	1
9	1559	50.540607172454	0
9	1589	51.540607172454	1
9	1590	51.540607172454	0
9	1617	52.540607172454	1
9	1618	52.540607172454	0
9	1645	53.540607172454	1
9	1646	53.540607172454	0
9	1685	54.540607172454	1
9	1686	54.540607172454	0
9	1722	55.540607172454	1
9	1723	55.540607172454	0
9	1750	56.540607172454	1
9	1751	56.540607172454	0
9	1784	57.540607172454	1
9	1785	57.540607172454	0
9	1818	58.540607172454	1
9	1819	58.540607172454	0
9	1852	59.540607172454	1
9	1853	59.540607172454	0
9	1883	60.540607172454	1
9	1884	60.540607172454	0
9	1935	61.632580586152	1
9	1936	61.632580586152	0
9	1971	62.632580586152	1
9	1972	62.632580586152	0
9	1998	63.632580586152	1
9	1999	63.632580586152	0
9	2032	64.632580586152	1
9	2033	64.632580586152	0
9	2063	65.632580586152	1
9	2064	65.632580586152	0
9	2100	66.632580586152	1
9	2101	66.632580586152	0
9	2134	67.632580586152	1
9	2135	67.632580586152	0
9	2171	68.632580586152	1
9	2172	68.632580586152	0
9	2199	69.632580586152	1
9	2200	69.632580586152	0
9	2227	70.632580586152	1
9	2228	70.632580586152	0
9	2255	71.632580586152	1
9	2256	71.632580586152	0
9	2315	73.293219858336	1
9	2316	73.293219858336	0
9	2348	74.293219858336	1
9	2349	74.293219858336	0
9	2375	75.293219858336	1
9	2376	75.293219858336	0
9	2471	78.400067332569	1
9	2472	78.400067332569	0
9	2497	79.400067332569	1
9	2498	79.400067332569	0
9	2524	80.400067332569	1
9	2525	80.400067332569	0
9	2558	81.400067332569	1
9	2559	81.400067332569	0
9	2592	82.400067332569	1
9	2593	82.400067332569	0
9	2626	83.400067332569	1
9	2627	83.400067332569	0
9	2657	84.400067332569	1
9	2658	84.400067332569	0
9	2691	85.400067332569	1
9	2692	85.400067332569	0
9	2728	86.400067332569	1
9	2729	86.400067332569	0
9	2762	87.400067332569	1
9	2763	87.400067332569	0
9	2796	88.400067332569	1
9	2797	88.400067332569	0
9	2824	89.400067332569	1
9	2825	89.400067332569	0
9	2861	90.400067332569	1
9	2862	90.400067332569	0
9	2901	91.400067332569	1
9	2902	91.400067332569	0
9	2932	92.400067332569	1
9	2933	92.400067332569	0
9	2966	93.400067332569	1
9	2967	93.400067332569	0
9	3000	94.400067332569	1
9	3001	94.400067332569	0
9	3031	95.400067332569	1
9	3032	95.400067332569	0
9	3071	96.400067332569	1
9	3072	96.400067332569	0
9	3114	97.400067332569	1
9	3115	97.400067332569	0
9	3151	98.400067332569	1
9	3152	98.400067332569	0
9	3185	99.400067332569	1
9	3186	99.400067332569	0
9	3219	100.400067332569	1
9	3220	100.400067332569	0
9	3256	101.400067332569	1
9	3257	101.400067332569	0
9	3290	102.400067332569	1
9	3291	102.400067332569	0
9	3321	103.400067332569	1
9	3322	103.400067332569	0
9	3355	104.400067332569	1
9	3356	104.400067332569	0
9	3389	105.400067332569	1
9	3390	105.400067332569	0
9	3420	106.400067332569	1
9	3421	106.400067332569	0
9	3457	107.400067332569	1
9	3458	107.400067332569	0
9	3485	108.400067332569	1
9	3486	108.400067332569	0
9	3516	109.400067332569	1
9	3517	109.400067332569	0
9	3550	110.400067332569	1
9	3551	110.400067332569	0
9	3584	111.400067332569	1
9	3585	111.400067332569	0
9	3612	112.400067332569	1
9	3613	112.400067332569	0
9	3643	113.400067332569	1
9	3644	113.400067332569	0
9	3677	114.400067332569	1
9	3678	114.400067332569	0
9	3711	115.400067332569	1
9	3712	115.400067332569	0
9	3742	116.400067332569	1
9	3743	116.400067332569	0
9	3779	117.400067332569	1
9	3780	117.400067332569	0
9	3813	118.400067332569	1
9	3814	118.400067332569	0
9	3850	119.400067332569	1
9	3851	119.400067332569	0
9	3878	120.400067332569	1
9	3879	120.400067332569	0
9	3909	121.400067332569	1
9	3910	121.400067332569	0
9	3940	122.400067332569	1
9	3941	122.400067332569	0
9	3974	123.400067332569	1
9	3975	123.400067332569	0
9	4008	124.400067332569	1
9	4009	124.400067332569	0
9	4045	125.400067332569	1
9	4046	125.400067332569	0
9	4073	126.400067332569	1
9	4074	126.400067332569	0
9	4107	127.400067332569	1
9	4108	127.400067332569	0
9	4159	128.649152527223	1
9	4160	128.649152527223	0
9	4192	129.649152527223	1
9	4193	129.649152527223	0
9	4222	130.649152527223	1
9	4223	130.649152527223	0
9	4259	131.649152527223	1
9	4260	131.649152527223	0
9	4293	132.649152527223	1
9	4294	132.649152527223	0
9	4336	133.649152527223	1
9	4337	133.649152527223	0
9	4370	134.649152527223	1
9	4371	134.649152527223	0
9	4410	135.649152527223	1
9	4411	135.649152527223	0
9	4444	136.649152527223	1
9	4445	136.649152527223	0
9	4475	137.649152527223	1
9	4476	137.649152527223	0
9	4509	138.649152527223	1
9	4510	138.649152527223	0
9	4540	139.649152527223	1
9	4541	139.649152527223	0
9	4580	140.649152527223	1
9	4581	140.649152527223	0
9	4614	141.649152527223	1
9	4615	141.649152527223	0
9	4642	142.649152527223	1
9	4643	142.649152527223	0
9	4676	143.649152527223	1
9	4677	143.649152527223	0
9	4704	144.649152527223	1
9	4705	144.649152527223	0
9	4738	145.649152527223	1
9	4739	145.649152527223	0
9	4781	146.649152527223	1
9	4782	146.649152527223	0
9	4812	147.649152527223	1
9	4813	147.649152527223	0
9	4843	148.649152527223	1
9	4844	148.649152527223	0
9	4877	149.649152527223	1
9	4878	149.649152527223	0
9	4905	150.649152527223	1
9	4906	150.649152527223	0
9	4939	151.649152527223	1
9	4940	151.649152527223	0
9	4967	152.649152527223	1
9	4968	152.649152527223	0
9	4998	153.649152527223	1
9	4999	153.649152527223	0
9	5026	154.649152527223	1
9	5027	154.649152527223	0
9	5060	155.649152527223	1
9	5061	155.649152527223	0
9	5100	156.649152527223	1
9	5101	156.649152527223	0
9	5134	157.649152527223	1
9	5135	157.649152527223	0
9	5168	158.649152527223	1
9	5169	158.649152527223	0
9	5196	159.649152527223	1
9	5197	159.649152527223	0
9	5230	160.649152527223	1
9	5231	160.649152527223	0
9	5276	161.649152527223	1
9	5277	161.649152527223	0
9	5307	162.649152527223	1
9	5308	162.649152527223	0
9	5341	163.649152527223	1
9	5342	163.649152527223	0
9	5372	164.649152527223	1
9	5373	164.649152527223	0
9	5409	165.649152527223	1
9	5410	165.649152527223	0
9	5440	166.649152527223	1
9	5441	166.649152527223	0
9	5474	167.649152527223	1
9	5475	167.649152527223	0
9	5502	168.649152527223	1
9	5503	168.649152527223	0
9	5542	169.649152527223	1
9	5543	169.649152527223	0
9	5573	170.649152527223	1
9	5574	170.649152527223	0
9	5604	171.649152527223	1
9	5605	171.649152527223	0
9	5635	172.649152527223	1
9	5636	172.649152527223	0
9	5672	173.649152527223	1
9	5673	173.649152527223	0
9	5715	174.649152527223	1
9	5716	174.649152527223	0
9	5758	175.649152527223	1
9	5759	175.649152527223	0
9	5792	176.649152527223	1
9	5793	176.649152527223	0
9	5823	177.649152527223	1
9	5824	177.649152527223	0
9	5854	178.649152527223	1
9	5855	178.649152527223	0
9	5882	179.649152527223	1
9	5883	179.649152527223	0
9	5919	180.649152527223	1
9	5920	180.649152527223	0
9	5953	181.649152527223	1
9	5954	181.649152527223	0
9	5990	182.649152527223	1
9	5991	182.649152527223	0
9	6027	183.649152527223	1
9	6028	183.649152527223	0
9	6061	184.649152527223	1
9	6062	184.649152527223	0
9	6092	185.649152527223	1
9	6093	185.649152527223	0
9	6120	186.649152527223	1
9	6121	186.649152527223	0
9	6151	187.649152527223	1
9	6152	187.649152527223	0
9	6182	188.649152527223	1
9	6183	188.649152527223	0
9	6216	189.649152527223	1
9	6217	189.649152527223	0
9	6250	190.649152527223	1
9	6251	190.649152527223	0
9	6281	191.649152527223	1
9	6282	191.649152527223	0
9	6315	192.649152527223	1
9	6316	192.649152527223	0
9	6349	193.649152527223	1
9	6350	193.649152527223	0
9	6380	194.649152527223	1
9	6381	194.649152527223	0
9	6423	195.649152527223	1
9	6424	195.649152527223	0
9	6457	196.649152527223	1
9	6458	196.649152527223	0
9	6488	197.649152527223	1
9	6489	197.649152527223	0
9	6554	199.64898529358	1
9	6555	199.64898529358	0
10	88	3.859804212075	1
10	89	3.859804212075	0
10	115	4.859804212075	1
10	116	4.859804212075	0
10	165	6.52596940626	1
10	166	6.52596940626	0
10	198	7.564128706924	1
10	199	7.564128706924	0
10	222	8.564128706924	1
10	223	8.564128706924	0
10	284	10.363172325843	1
10	285	10.363172325843	0
10	313	11.363172325843	1
10	314	11.363172325843	0
10	350	12.363172325843	1
10	351	12.363172325843	0
10	384	13.363172325843	1
10	385	13.363172325843	0
10	412	14.363172325843	1
10	413	14.363172325843	0
10	454	15.363172325843	1
10	455	15.363172325843	0
10	483	16.363172325843	1
10	484	16.363172325843	0
10	507	17.363172325843	1
10	508	17.363172325843	0
10	538	18.363172325843	1
10	539	18.363172325843	0
10	575	19.363172325843	1
10	576	19.363172325843	0
10	603	20.363172325843	1
10	604	20.363172325843	0
10	638	21.363172325843	1
10	639	21.363172325843	0
10	669	22.363172325843	1
10	670	22.363172325843	0
10	692	23.363172325843	1
10	693	23.363172325843	0
10	767	27.047509410774	1
10	768	27.047509410774	0
10	790	28.047509410774	1
10	791	28.047509410774	0
10	848	29.182974844391	1
10	849	29.182974844391	0
10	884	30.20440671874	1
10	885	30.20440671874	0
10	907	31.20440671874	1
10	908	31.20440671874	0
10	979	33.971148391769	1
10	980	33.971148391769	0
10	1018	34.971148391769	1
10	1019	34.971148391769	0
10	1063	36.101097919552	1
10	1064	36.101097919552	0
10	1100	37.101097919552	1
10	1101	37.101097919552	0
10	1131	38.101097919552	1
10	1132	38.101097919552	0
10	1159	39.101097919552	1
10	1160	39.101097919552	0
10	1193	40.101097919552	1
10	1194	40.101097919552	0
10	1230	41.101097919552	1
10	1231	41.101097919552	0
10	1264	42.101097919552	1
10	1265	42.101097919552	0
10	1301	43.101097919552	1
10	1302	43.101097919552	0
10	1332	44.101097919552	1
10	1333	44.101097919552	0
10	1363	45.101097919552	1
10	1364	45.101097919552	0
10	1394	46.101097919552	1
10	1395	46.101097919552	0
10	1430	47.101097919552	1
10	1431	47.101097919552	0
10	1492	48.540707172454	1
10	1493	48.540707172454	0
10	1529	49.540707172454	1
10	1530	49.540707172454	0
10	1563	50.540707172454	1
10	1564	50.540707172454	0
10	1594	51.540707172454	1
10	1595	51.540707172454	0
10	1622	52.540707172454	1
10	1623	52.540707172454	0
10	1650	53.540707172454	1
10	1651	53.540707172454	0
10	1690	54.540707172454	1
10	1691	54.540707172454	0
10	1727	55.540707172454	1
10	1728	55.540707172454	0
10	1755	56.540707172454	1
10	1756	56.540707172454	0
10	1789	57.540707172454	1
10	1790	57.540707172454	0
10	1823	58.540707172454	1
10	1824	58.540707172454	0
10	1857	59.540707172454	1
10	1858	59.540707172454	0
10	1888	60.540707172454	1
10	1889	60.540707172454	0
10	1927	61.540707172454	1
10	1928	61.540707172454	0
10	1975	62.632680586152	1
10	1976	62.632680586152	0
10	2003	63.632680586152	1
10	2004	63.632680586152	0
10	2037	64.632680586152	1
10	2038	64.632680586152	0
10	2068	65.632680586152	1
10	2069	65.632680586152	0
10	2105	66.632680586152	1
10	2106	66.632680586152	0
10	2139	67.632680586152	1
10	2140	67.632680586152	0
10	2176	68.632680586152	1
10	2177	68.632680586152	0
10	2204	69.632680586152	1
10	2205	69.632680586152	0
10	2232	70.632680586152	1
10	2233	70.632680586152	0
10	2260	71.632680586152	1
10	2261	71.632680586152	0
10	2290	72.632680586152	1
10	2291	72.632680586152	0
10	2352	74.293319858336	1
10	2353	74.293319858336	0
10	2380	75.293319858336	1
10	2381	75.293319858336	0
10	2406	76.293319858336	1
10	2407	76.293319858336	0
10	2501	79.400167332569	1
10	2502	79.400167332569	0
10	2529	80.400167332569	1
10	2530	80.400167332569	0
10	2563	81.400167332569	1
10	2564	81.400167332569	0
10	2597	82.400167332569	1
10	2598	82.400167332569	0
10	2631	83.400167332569	1
10	2632	83.400167332569	0
10	2662	84.400167332569	1
10	2663	84.400167332569	0
10	2696	85.400167332569	1
10	2697	85.400167332569	0
10	2733	86.400167332569	1
10	2734	86.400167332569	0
10	2767	87.400167332569	1
10	2768	87.400167332569	0
10	2801	88.400167332569	1
10	2802	88.400167332569	0
10	2829	89.400167332569	1
10	2830	89.400167332569	0
10	2866	90.400167332569	1
10	2867	90.400167332569	0
10	2906	91.400167332569	1
10	2907	91.400167332569	0
10	2937	92.400167332569	1
10	2938	92.400167332569	0
10	2971	93.400167332569	1
10	2972	93.400167332569	0
10	3005	94.400167332569	1
10	3006	94.400167332569	0
10	3036	95.400167332569	1
10	3037	95.400167332569	0
10	3076	96.400167332569	1
10	3077	96.400167332569	0
10	3119	97.400167332569	1
10	3120	97.400167332569	0
10	3156	98.400167332569	1
10	3157	98.400167332569	0
10	3190	99.400167332569	1
10	3191	99.400167332569	0
10	3224	100.400167332569	1
10	3225	100.400167332569	0
10	3261	101.400167332569	1
10	3262	101.400167332569	0
10	3295	102.400167332569	1
10	3296	102.400167332569	0
10	3326	103.400167332569	1
10	3327	103.400167332569	0
10	3360	104.400167332569	1
10	3361	104.400167332569	0
10	3394	105.400167332569	1
10	3395	105.400167332569	0
10	3425	106.400167332569	1
10	3426	106.400167332569	0
10	3462	107.400167332569	1
10	3463	107.400167332569	0
10	3490	108.400167332569	1
10	3491	108.400167332569	0
10	3521	109.400167332569	1
10	3522	109.400167332569	0
10	3555	110.400167332569	1
10	3556	110.400167332569	0
10	3589	111.400167332569	1
10	3590	111.400167332569	0
10	3617	112.400167332569	1
10	3618	112.400167332569	0
10	3648	113.400167332569	1
10	3649	113.400167332569	0
10	3682	114.400167332569	1
10	3683	114.400167332569	0
10	3716	115.400167332569	1
10	3717	115.400167332569	0
10	3747	116.400167332569	1
10	3748	116.400167332569	0
10	3784	117.400167332569	1
10	3785	117.400167332569	0
10	3818	118.400167332569	1
10	3819	118.400167332569	0
10	3855	119.400167332569	1
10	3856	119.400167332569	0
10	3883	120.400167332569	1
10	3884	120.400167332569	0
10	3914	121.400167332569	1
10	3915	121.400167332569	0
10	3945	122.400167332569	1
10	3946	122.400167332569	0
10	3979	123.400167332569	1
10	3980	123.400167332569	0
10	4013	124.400167332569	1
10	4014	124.400167332569	0
10	4050	125.400167332569	1
10	4051	125.400167332569	0
10	4078	126.400167332569	1
10	4079	126.400167332569	0
10	4112	127.400167332569	1
10	4113	127.400167332569	0
10	4142	128.400167332569	1
10	4143	128.400167332569	0
10	4196	129.649252527223	1
10	4197	129.649252527223	0
10	4227	130.649252527223	1
10	4228	130.649252527223	0
10	4264	131.649252527223	1
10	4265	131.649252527223	0
10	4298	132.649252527223	1
10	4299	132.649252527223	0
10	4341	133.649252527223	1
10	4342	133.649252527223	0
10	4375	134.649252527223	1
10	4376	134.649252527223	0
10	4415	135.649252527223	1
10	4416	135.649252527223	0
10	4449	136.649252527223	1
10	4450	136.649252527223	0
10	4480	137.649252527223	1
10	4481	137.649252527223	0
10	4514	138.649252527223	1
10	4515	138.649252527223	0
10	4545	139.649252527223	1
10	4546	139.649252527223	0
10	4585	140.649252527223	1
10	4586	140.649252527223	0
10	4619	141.649252527223	1
10	4620	141.649252527223	0
10	4647	142.649252527223	1
10	4648	142.649252527223	0
10	4681	143.649252527223	1
10	4682	143.649252527223	0
10	4709	144.649252527223	1
10	4710	144.649252527223	0
10	4743	145.649252527223	1
10	4744	145.649252527223	0
10	4786	146.649252527223	1
10	4787	146.649252527223	0
10	4817	147.649252527223	1
10	4818	147.649252527223	0
10	4848	148.649252527223	1
10	4849	148.649252527223	0
10	4882	149.649252527223	1
10	4883	149.649252527223	0
10	4910	150.649252527223	1
10	4911	150.649252527223	0
10	4944	151.649252527223	1
10	4945	151.649252527223	0
10	4972	152.649252527223	1
10	4973	152.649252527223	0
10	5003	153.649252527223	1
10	5004	153.649252527223	0
10	5031	154.649252527223	1
10	5032	154.649252527223	0
10	5065	155.649252527223	1
10	5066	155.649252527223	0
10	5105	156.649252527223	1
10	5106	156.649252527223	0
10	5139	157.649252527223	1
10	5140	157.649252527223	0
10	5173	158.649252527223	1
10	5174	158.649252527223	0
10	5201	159.649252527223	1
10	5202	159.649252527223	0
10	5235	160.649252527223	1
10	5236	160.649252527223	0
10	5281	161.649252527223	1
10	5282	161.649252527223	0
10	5312	162.649252527223	1
10	5313	162.649252527223	0
10	5346	163.649252527223	1
10	5347	163.649252527223	0
10	5377	164.649252527223	1
10	5378	164.649252527223	0
10	5414	165.649252527223	1
10	5415	165.649252527223	0
10	5445	166.649252527223	1
10	5446	166.649252527223	0
10	5479	167.649252527223	1
10	5480	167.649252527223	0
10	5507	168.649252527223	1
10	5508	168.649252527223	0
10	5547	169.649252527223	1
10	5548	169.649252527223	0
10	5578	170.649252527223	1
10	5579	170.649252527223	0
10	5609	171.649252527223	1
10	5610	171.649252527223	0
10	5640	172.649252527223	1
10	5641	172.649252527223	0
10	5677	173.649252527223	1
10	5678	173.649252527223	0
10	5720	174.649252527223	1
10	5721	174.649252527223	0
10	5763	175.649252527223	1
10	5764	175.649252527223	0
10	5797	176.649252527223	1
10	5798	176.649252527223	0
10	5828	177.649252527223	1
10	5829	177.649252527223	0
10	5859	178.649252527223	1
10	5860	178.649252527223	0
10	5887	179.649252527223	1
10	5888	179.649252527223	0
10	5924	180.649252527223	1
10	5925	180.649252527223	0
10	5958	181.649252527223	1
10	5959	181.649252527223	0
10	5995	182.649252527223	1
10	5996	182.649252527223	0
10	6032	183.649252527223	1
10	6033	183.649252527223	0
10	6066	184.649252527223	1
10	6067	184.649252527223	0
10	6097	185.649252527223	1
10	6098	185.649252527223	0
10	6125	186.649252527223	1
10	6126	186.649252527223	0
10	6156	187.649252527223	1
10	6157	187.649252527223	0
10	6187	188.649252527223	1
10	6188	188.649252527223	0
10	6221	189.649252527223	1
10	6222	189.649252527223	0
10	6255	190.649252527223	1
10	6256	190.649252527223	0
10	6286	191.649252527223	1
10	6287	191.649252527223	0
10	6320	192.649252527223	1
10	6321	192.649252527223	0
10	6354	193.649252527223	1
10	6355	193.649252527223	0
10	6385	194.649252527223	1
10	6386	194.649252527223	0
10	6428	195.649252527223	1
10	6429	195.649252527223	0
10	6462	196.649252527223	1
10	6463	196.649252527223	0
10	6493	197.649252527223	1
10	6494	197.649252527223	0
10	6523	198.649252527223	1
10	6524	198.649252527223	0
11	97	3.898860388484	3
11	118	4.859904212075	3
11	122	4.898860388484	3
11	151	5.859904212075	3
11	184	6.773628855839	3
11	188	7.52606940626	3
11	212	7.773628855839	3
11	225	8.564228706924	3
11	242	8.773628855839	3
11	257	9.564228706924	3
11	271	9.773628855839	3
11	298	10.773628855839	3
11	316	11.363272325843	3
11	328	11.773628855839	3
11	353	12.363272325843	3
11	363	12.773628855839	3
11	387	13.363272325843	3
11	401	14.082164138406	3
11	415	14.363272325843	3
11	437	15.082164138406	3
11	457	15.363272325843	3
11	469	16.082164138406	3
11	486	16.363272325843	3
11	510	17.363272325843	3
11	524	17.482640368894	3
11	541	18.363272325843	3
11	555	18.482640368894	3
11	578	19.363272325843	3
11	592	19.482640368894	3
11	606	20.363272325843	3
11	620	20.482640368894	3
11	641	21.363272325843	3
11	650	21.482640368894	3
11	672	22.363272325843	3
11	676	22.482640368894	3
11	695	23.363272325843	3
11	708	24.294739399622	3
11	712	24.363272325843	3
11	729	25.294739399622	3
11	754	26.541688129362	3
11	793	28.047609410774	3
11	807	28.155690204255	3
11	826	29.047609410774	3
11	843	29.155690204255	3
11	870	30.155690204255	3
11	874	30.183074844391	3
11	901	31.155690204255	3
11	910	31.20450671874	3
11	934	32.155690204255	3
11	941	32.20450671874	3
11	969	33.155690204255	3
11	1000	34.155690204255	3
11	1021	34.971248391769	3
11	1040	35.155690204255	3
11	1053	35.971248391769	3
11	1080	36.155690204255	3
11	1103	37.101197919552	3
11	1117	37.155690204255	3
11	1134	38.101197919552	3
11	1148	38.155690204255	3
11	1162	39.101197919552	3
11	1176	39.155690204255	3
11	1196	40.101197919552	3
11	1210	40.155690204255	3
11	1233	41.101197919552	3
11	1247	41.155690204255	3
11	1267	42.101197919552	3
11	1281	42.155690204255	3
11	1304	43.101197919552	3
11	1318	43.155690204255	3
11	1335	44.101197919552	3
11	1349	44.155690204255	3
11	1366	45.101197919552	3
11	1380	45.155690204255	3
11	1397	46.101197919552	3
11	1411	46.155690204255	3
11	1433	47.101197919552	3
11	1450	47.155690204255	3
11	1465	48.101197919552	3
11	1479	48.155690204255	3
11	1518	49.155690204255	3
11	1532	49.540807172454	3
11	1552	50.155690204255	3
11	1566	50.540807172454	3
11	1583	51.155690204255	3
11	1597	51.540807172454	3
11	1611	52.155690204255	3
11	1625	52.540807172454	3
11	1639	53.155690204255	3
11	1653	53.540807172454	3
11	1673	54.155690204255	3
11	1693	54.540807172454	3
11	1710	55.155690204255	3
11	1730	55.540807172454	3
11	1744	56.155690204255	3
11	1758	56.540807172454	3
11	1775	57.155690204255	3
11	1792	57.540807172454	3
11	1809	58.155690204255	3
11	1826	58.540807172454	3
11	1843	59.155690204255	3
11	1860	59.540807172454	3
11	1877	60.155690204255	3
11	1891	60.540807172454	3
11	1918	61.155690204255	3
11	1930	61.540807172454	3
11	1952	62.155690204255	3
11	1965	62.540807172454	3
11	1992	63.155690204255	3
11	2006	63.632780586152	3
11	2023	64.155690204255	3
11	2040	64.632780586152	3
11	2054	65.155690204255	3
11	2071	65.632780586152	3
11	2094	66.155690204255	3
11	2108	66.632780586152	3
11	2125	67.155690204255	3
11	2142	67.632780586152	3
11	2156	68.155690204255	3
11	2179	68.632780586152	3
11	2193	69.155690204255	3
11	2207	69.632780586152	3
11	2221	70.155690204255	3
11	2235	70.632780586152	3
11	2249	71.155690204255	3
11	2263	71.632780586152	3
11	2280	72.155690204255	3
11	2293	72.632780586152	3
11	2310	73.155690204255	3
11	2319	73.632780586152	3
11	2342	74.155690204255	3
11	2369	75.155690204255	3
11	2383	75.293419858336	3
11	2400	76.155690204255	3
11	2409	76.293419858336	3
11	2432	77.155690204255	3
11	2436	77.293419858336	3
11	2463	78.155690204255	3
11	2488	79.155690204255	3
11	2518	80.155690204255	3
11	2532	80.400267332569	3
11	2552	81.155690204255	3
11	2566	81.400267332569	3
11	2586	82.155690204255	3
11	2600	82.400267332569	3
11	2617	83.155690204255	3
11	2634	83.400267332569	3
11	2651	84.155690204255	3
11	2665	84.400267332569	3
11	2685	85.155690204255	3
11	2699	85.400267332569	3
11	2722	86.155690204255	3
11	2736	86.400267332569	3
11	2753	87.155690204255	3
11	2770	87.400267332569	3
11	2790	88.155690204255	3
11	2804	88.400267332569	3
11	2818	89.155690204255	3
11	2832	89.400267332569	3
11	2855	90.155690204255	3
11	2869	90.400267332569	3
11	2889	91.155690204255	3
11	2909	91.400267332569	3
11	2923	92.155690204255	3
11	2940	92.400267332569	3
11	2960	93.155690204255	3
11	2974	93.400267332569	3
11	2991	94.155690204255	3
11	3008	94.400267332569	3
11	3022	95.155690204255	3
11	3039	95.400267332569	3
11	3065	96.155690204255	3
11	3079	96.400267332569	3
11	3102	97.155690204255	3
11	3122	97.400267332569	3
11	3145	98.155690204255	3
11	3159	98.400267332569	3
11	3179	99.155690204255	3
11	3193	99.400267332569	3
11	3213	100.155690204255	3
11	3227	100.400267332569	3
11	3250	101.155690204255	3
11	3264	101.400267332569	3
11	3284	102.155690204255	3
11	3298	102.400267332569	3
11	3312	103.155690204255	3
11	3329	103.400267332569	3
11	3343	104.155690204255	3
11	3363	104.400267332569	3
11	3380	105.155690204255	3
11	3397	105.400267332569	3
11	3414	106.155690204255	3
11	3428	106.400267332569	3
11	3448	107.155690204255	3
11	3465	107.400267332569	3
11	3479	108.155690204255	3
11	3493	108.400267332569	3
11	3507	109.155690204255	3
11	3524	109.400267332569	3
11	3538	110.155690204255	3
11	3558	110.400267332569	3
11	3578	111.155690204255	3
11	3592	111.400267332569	3
11	3606	112.155690204255	3
11	3620	112.400267332569	3
11	3637	113.155690204255	3
11	3651	113.400267332569	3
11	3671	114.155690204255	3
11	3685	114.400267332569	3
11	3705	115.155690204255	3
11	3719	115.400267332569	3
11	3736	116.155690204255	3
11	3750	116.400267332569	3
11	3773	117.155690204255	3
11	3787	117.400267332569	3
11	3807	118.155690204255	3
11	3821	118.400267332569	3
11	3841	119.155690204255	3
11	3858	119.400267332569	3
11	3872	120.155690204255	3
11	3886	120.400267332569	3
11	3900	121.155690204255	3
11	3917	121.400267332569	3
11	3931	122.155690204255	3
11	3948	122.400267332569	3
11	3965	123.155690204255	3
11	3982	123.400267332569	3
11	3999	124.155690204255	3
11	4016	124.400267332569	3
11	4036	125.155690204255	3
11	4053	125.400267332569	3
11	4067	126.155690204255	3
11	4081	126.400267332569	3
11	4101	127.155690204255	3
11	4115	127.400267332569	3
11	4136	128.155690204255	3
11	4145	128.400267332569	3
11	4176	129.155690204255	3
11	4183	129.400267332569	3
11	4210	130.155690204255	3
11	4230	130.649352527223	3
11	4250	131.155690204255	3
11	4267	131.649352527223	3
11	4284	132.155690204255	3
11	4301	132.649352527223	3
11	4324	133.155690204255	3
11	4344	133.649352527223	3
11	4358	134.155690204255	3
11	4378	134.649352527223	3
11	4395	135.155690204255	3
11	4418	135.649352527223	3
11	4432	136.155690204255	3
11	4452	136.649352527223	3
11	4466	137.155690204255	3
11	4483	137.649352527223	3
11	4500	138.155690204255	3
11	4517	138.649352527223	3
11	4534	139.155690204255	3
11	4548	139.649352527223	3
11	4568	140.155690204255	3
11	4588	140.649352527223	3
11	4608	141.155690204255	3
11	4622	141.649352527223	3
11	4636	142.155690204255	3
11	4650	142.649352527223	3
11	4664	143.155690204255	3
11	4684	143.649352527223	3
11	4698	144.155690204255	3
11	4712	144.649352527223	3
11	4729	145.155690204255	3
11	4746	145.649352527223	3
11	4763	146.155690204255	3
11	4789	146.649352527223	3
11	4806	147.155690204255	3
11	4820	147.649352527223	3
11	4834	148.155690204255	3
11	4851	148.649352527223	3
11	4871	149.155690204255	3
11	4885	149.649352527223	3
11	4899	150.155690204255	3
11	4913	150.649352527223	3
11	4933	151.155690204255	3
11	4947	151.649352527223	3
11	4961	152.155690204255	3
11	4975	152.649352527223	3
11	4989	153.155690204255	3
11	5006	153.649352527223	3
11	5020	154.155690204255	3
11	5034	154.649352527223	3
11	5048	155.155690204255	3
11	5068	155.649352527223	3
11	5088	156.155690204255	3
11	5108	156.649352527223	3
11	5128	157.155690204255	3
11	5142	157.649352527223	3
11	5156	158.155690204255	3
11	5176	158.649352527223	3
11	5190	159.155690204255	3
11	5204	159.649352527223	3
11	5218	160.155690204255	3
11	5238	160.649352527223	3
11	5264	161.155690204255	3
11	5284	161.649352527223	3
11	5298	162.155690204255	3
11	5315	162.649352527223	3
11	5332	163.155690204255	3
11	5349	163.649352527223	3
11	5363	164.155690204255	3
11	5380	164.649352527223	3
11	5394	165.155690204255	3
11	5417	165.649352527223	3
11	5434	166.155690204255	3
11	5448	166.649352527223	3
11	5462	167.155690204255	3
11	5482	167.649352527223	3
11	5496	168.155690204255	3
11	5510	168.649352527223	3
11	5524	169.155690204255	3
11	5550	169.649352527223	3
11	5567	170.155690204255	3
11	5581	170.649352527223	3
11	5598	171.155690204255	3
11	5612	171.649352527223	3
11	5626	172.155690204255	3
11	5643	172.649352527223	3
11	5663	173.155690204255	3
11	5680	173.649352527223	3
11	5697	174.155690204255	3
11	5723	174.649352527223	3
11	5749	175.155690204255	3
11	5766	175.649352527223	3
11	5783	176.155690204255	3
11	5800	176.649352527223	3
11	5817	177.155690204255	3
11	5831	177.649352527223	3
11	5848	178.155690204255	3
11	5862	178.649352527223	3
11	5876	179.155690204255	3
11	5890	179.649352527223	3
11	5907	180.155690204255	3
11	5927	180.649352527223	3
11	5941	181.155690204255	3
11	5961	181.649352527223	3
11	5981	182.155690204255	3
11	5998	182.649352527223	3
11	6018	183.155690204255	3
11	6035	183.649352527223	3
11	6052	184.155690204255	3
11	6069	184.649352527223	3
11	6086	185.155690204255	3
11	6100	185.649352527223	3
11	6114	186.155690204255	3
11	6128	186.649352527223	3
11	6142	187.155690204255	3
11	6159	187.649352527223	3
11	6176	188.155690204255	3
11	6190	188.649352527223	3
11	6210	189.155690204255	3
11	6224	189.649352527223	3
11	6244	190.155690204255	3
11	6258	190.649352527223	3
11	6275	191.155690204255	3
11	6289	191.649352527223	3
11	6306	192.155690204255	3
11	6323	192.649352527223	3
11	6337	193.155690204255	3
11	6357	193.649352527223	3
11	6371	194.155690204255	3
11	6388	194.649352527223	3
11	6408	195.155690204255	3
11	6431	195.649352527223	3
11	6451	196.155690204255	3
11	6465	196.649352527223	3
11	6482	197.155690204255	3
11	6496	197.649352527223	3
11	6513	198.155690204255	3
11	6526	198.649352527223	3
11	6543	199.155690204255	3
11	6558	199.649352527223	3
12	98	3.898860388484	3.0003
12	119	4.859904212075	3.0003
12	123	4.898860388484	3.077076868529
12	152	5.859904212075	3.213098860018
12	185	6.773628855839	3.0003
12	189	7.52606940626	3.0003
12	213	7.773628855839	3.44925151333
12	226	8.564228706924	3.0003
12	243	8.773628855839	3.472245086937
12	258	9.564228706924	3.424780803117
12	272	9.773628855839	3.987116923215
12	299	10.773628855839	4.633957784077
12	317	11.363272325843	3.0003
12	329	11.773628855839	5.575573114984
12	354	12.363272325843	3.681943859158
12	364	12.773628855839	3.260660835056
12	388	13.363272325843	4.19834175421
12	402	14.082164138406	3.0003
12	416	14.363272325843	4.548895405959
12	438	15.082164138406	3.247625886687
12	458	15.363272325843	3.876684205634
12	470	16.082164138406	3.408193033787
12	487	16.363272325843	4.222801638413
12	511	17.363272325843	4.723929629397
12	525	17.482640368894	3.0003
12	542	18.363272325843	3.125675543548
12	556	18.482640368894	3.926614644535
12	579	19.363272325843	4.105249955149
12	593	19.482640368894	4.515036648292
12	607	20.363272325843	4.646001817894
12	621	20.482640368894	5.423875622168
12	642	21.363272325843	3.858514154455
12	651	21.482640368894	5.37926311386
12	673	22.363272325843	3.352729895818
12	677	22.482640368894	3.229093185184
12	696	23.363272325843	4.201499042153
12	709	24.294739399622	3.0003
12	713	24.363272325843	3.161184784211
12	730	25.294739399622	3.358590827322
12	755	26.541688129362	3.0003
12	794	28.047609410774	3.0003
12	808	28.155690204255	3.0003
12	827	29.047609410774	3.381370540373
12	844	29.155690204255	3.26533557881
12	871	30.155690204255	3.1293966371
12	875	30.183074844391	3.0003
12	902	31.155690204255	4.003522227662
12	911	31.20450671874	3.0003
12	935	32.155690204255	3.728294525438
12	942	32.20450671874	3.127978804958
12	970	33.155690204255	4.573564844938
12	1001	34.155690204255	4.802730186471
12	1022	34.971248391769	3.0003
12	1041	35.155690204255	4.381365506377
12	1054	35.971248391769	3.358605297969
12	1081	36.155690204255	4.643538214621
12	1104	37.101197919552	3.0003
12	1118	37.155690204255	5.531592053988
12	1135	38.101197919552	3.756251509263
12	1149	38.155690204255	5.99602633376
12	1163	39.101197919552	3.915916803651
12	1177	39.155690204255	6.688745981607
12	1197	40.101197919552	4.753780314205
12	1211	40.155690204255	7.482542699577
12	1234	41.101197919552	4.80678363703
12	1248	41.155690204255	7.147252514953
12	1268	42.101197919552	4.847235659662
12	1282	42.155690204255	7.53817009177
12	1305	43.101197919552	3.518322285448
12	1319	43.155690204255	8.392892064478
12	1336	44.101197919552	3.373183330748
12	1350	44.155690204255	9.373923495277
12	1367	45.101197919552	3.423688747251
12	1381	45.155690204255	9.9821526846
12	1398	46.101197919552	3.227580947794
12	1412	46.155690204255	10.020771745534
12	1434	47.101197919552	4.123019722019
12	1451	47.155690204255	10.769329813459
12	1466	48.101197919552	5.060904431553
12	1480	48.155690204255	11.280772764151
12	1519	49.155690204255	9.402857742873
12	1533	49.540807172454	3.0003
12	1553	50.155690204255	9.805111666055
12	1567	50.540807172454	3.812873933982
12	1584	51.155690204255	10.359593171004
12	1598	51.540807172454	4.576667227899
12	1612	52.155690204255	10.785060764263
12	1626	52.540807172454	5.133263199278
12	1640	53.155690204255	9.458709702569
12	1654	53.540807172454	5.754301234995
12	1674	54.155690204255	9.359797235018
12	1694	54.540807172454	5.818239675224
12	1711	55.155690204255	9.30096310353
12	1731	55.540807172454	6.42512711792
12	1745	56.155690204255	9.190365657843
12	1759	56.540807172454	7.385943961507
12	1776	57.155690204255	10.052336969415
12	1793	57.540807172454	7.8086196507
12	1810	58.155690204255	9.663294279624
12	1827	58.540807172454	7.802748645533
12	1844	59.155690204255	10.211192219399
12	1861	59.540807172454	5.609802003479
12	1878	60.155690204255	10.366764425871
12	1892	60.540807172454	6.502166895323
12	1919	61.155690204255	6.912267579695
12	1931	61.540807172454	6.444340481971
12	1953	62.155690204255	7.677966060919
12	1966	62.540807172454	7.268426936545
12	1993	63.155690204255	7.669946815499
12	2007	63.632780586152	3.0003
12	2024	64.155690204255	7.611204100405
12	2041	64.632780586152	3.827172543854
12	2055	65.155690204255	7.739288246779
12	2072	65.632780586152	4.710217134062
12	2095	66.155690204255	8.447207713512
12	2109	66.632780586152	4.587048832529
12	2126	67.155690204255	8.912143036429
12	2143	67.632780586152	5.205492989155
12	2157	68.155690204255	9.284201455438
12	2180	68.632780586152	5.986612392648
12	2194	69.155690204255	9.640420453835
12	2208	69.632780586152	3.999422500796
12	2222	70.155690204255	10.360143445356
12	2236	70.632780586152	4.985757922365
12	2250	71.155690204255	10.383279371285
12	2264	71.632780586152	5.88361304084
12	2281	72.155690204255	10.970778141363
12	2294	72.632780586152	5.908511106684
12	2311	73.155690204255	10.902705944213
12	2320	73.632780586152	5.0886921874
12	2343	74.155690204255	11.753993674961
12	2370	75.155690204255	11.247358341688
12	2384	75.293419858336	3.0003
12	2401	76.155690204255	11.787344383948
12	2410	76.293419858336	3.367963403604
12	2433	77.155690204255	11.70107500307
12	2437	77.293419858336	3.655379810271
12	2464	78.155690204255	10.980743345353
12	2489	79.155690204255	10.860928979599
12	2519	80.155690204255	11.75989420429
12	2533	80.400267332569	3.0003
12	2553	81.155690204255	9.186305831946
12	2567	81.400267332569	3.667889759036
12	2587	82.155690204255	8.080984531154
12	2601	82.400267332569	4.539832993725
12	2618	83.155690204255	9.02365760473
12	2635	83.400267332569	5.094413531805
12	2652	84.155690204255	9.095179107829
12	2666	84.400267332569	5.743237442424
12	2686	85.155690204255	9.495232221188
12	2700	85.400267332569	6.08759115806
12	2723	86.155690204255	9.150986949036
12	2737	86.400267332569	6.961202521635
12	2754	87.155690204255	10.13079682089
12	2771	87.400267332569	6.794328995086
12	2791	88.155690204255	11.090820521832
12	2805	88.400267332569	7.411628046224
12	2819	89.155690204255	11.507942132965
12	2833	89.400267332569	6.287390849222
12	2856	90.155690204255	8.61637201012
12	2870	90.400267332569	7.22109344774
12	2890	91.155690204255	9.081487634363
12	2910	91.400267332569	7.976697999658
12	2924	92.155690204255	7.577575851278
12	2941	92.400267332569	7.797508472593
12	2961	93.155690204255	7.744732335212
12	2975	93.400267332569	7.961410940623
12	2992	94.155690204255	6.741491812705
12	3009	94.400267332569	8.652996100525
12	3023	95.155690204255	7.642841504287
12	3040	95.400267332569	8.941748163308
12	3066	96.155690204255	6.102536996328
12	3080	96.400267332569	9.200989212861
12	3103	97.155690204255	7.015766513988
12	3123	97.400267332569	7.715406855884
12	3146	98.155690204255	5.366510585312
12	3160	98.400267332569	7.85751121481
12	3180	99.155690204255	6.225179871751
12	3194	99.400267332569	8.532170799281
12	3214	100.155690204255	6.183399217572
12	3228	100.400267332569	9.148610585182
12	3251	101.155690204255	5.923465407463
12	3265	101.400267332569	10.139209834518
12	3285	102.155690204255	6.581811240437
12	3299	102.400267332569	10.038363924427
12	3313	103.155690204255	7.274293516675
12	3330	103.400267332569	9.191036273425
12	3344	104.155690204255	8.071943078108
12	3364	104.400267332569	8.349753801938
12	3381	105.155690204255	8.188814036149
12	3398	105.400267332569	8.842553678681
12	3415	106.155690204255	9.168501577353
12	3429	106.400267332569	9.03775627888
12	3449	107.155690204255	9.988249325368
12	3466	107.400267332569	9.576025382836
12	3480	108.155690204255	9.222508252955
12	3494	108.400267332569	10.571318842344
12	3508	109.155690204255	9.379425220807
12	3525	109.400267332569	11.412977336113
12	3539	110.155690204255	9.050667347057
12	3559	110.400267332569	11.280343194141
12	3579	111.155690204255	9.482763193577
12	3593	111.400267332569	11.965621533286
12	3607	112.155690204255	10.196742221069
12	3621	112.400267332569	11.749112879849
12	3638	113.155690204255	9.785717811775
12	3652	113.400267332569	12.408766141614
12	3672	114.155690204255	9.927324843946
12	3686	114.400267332569	10.133622963899
12	3706	115.155690204255	10.422981037358
12	3720	115.400267332569	10.237032093113
12	3737	116.155690204255	9.159247461497
12	3751	116.400267332569	10.387811281549
12	3774	117.155690204255	9.906827468606
12	3788	117.400267332569	10.36915255153
12	3808	118.155690204255	7.854545811722
12	3822	118.400267332569	9.147645653056
12	3842	119.155690204255	8.26192178427
12	3859	119.400267332569	9.008037689523
12	3873	120.155690204255	7.388461904413
12	3887	120.400267332569	9.411658295193
12	3901	121.155690204255	7.186223337166
12	3918	121.400267332569	6.568651711949
12	3932	122.155690204255	8.062696689804
12	3949	122.400267332569	5.887729507403
12	3966	123.155690204255	8.70967655653
12	3983	123.400267332569	5.762447490559
12	4000	124.155690204255	8.252857997966
12	4017	124.400267332569	6.475037014489
12	4037	125.155690204255	8.722135501349
12	4054	125.400267332569	6.604501188163
12	4068	126.155690204255	9.217116753594
12	4082	126.400267332569	7.228762345756
12	4102	127.155690204255	8.087617357526
12	4116	127.400267332569	4.864391892705
12	4137	128.155690204255	6.952786907543
12	4146	128.400267332569	4.572482623904
12	4177	129.155690204255	6.773403973898
12	4184	129.400267332569	4.876683163004
12	4211	130.155690204255	6.885542563461
12	4231	130.649352527223	3.0003
12	4251	131.155690204255	6.807707679325
12	4268	131.649352527223	3.067897119593
12	4285	132.155690204255	7.045839908029
12	4302	132.649352527223	4.048517338245
12	4325	133.155690204255	7.783782666354
12	4345	133.649352527223	4.413389622614
12	4359	134.155690204255	7.750985655709
12	4379	134.649352527223	4.15434610535
12	4396	135.155690204255	8.248674857448
12	4419	135.649352527223	4.814681372768
12	4433	136.155690204255	8.697278867314
12	4453	136.649352527223	5.331045686179
12	4467	137.155690204255	8.73282530182
12	4484	137.649352527223	4.948066479642
12	4501	138.155690204255	9.088720593497
12	4518	138.649352527223	5.802492501194
12	4535	139.155690204255	9.729793377627
12	4549	139.649352527223	6.693945402699
12	4569	140.155690204255	9.650473178971
12	4589	140.649352527223	7.339721270454
12	4609	141.155690204255	10.307873554273
12	4623	141.649352527223	8.242798515877
12	4637	142.155690204255	10.345498498502
12	4651	142.649352527223	8.398910043286
12	4665	143.155690204255	10.785537428428
12	4685	143.649352527223	8.961882029512
12	4699	144.155690204255	9.678089823478
12	4713	144.649352527223	9.159330043753
12	4730	145.155690204255	9.784360745172
12	4747	145.649352527223	10.125126625395
12	4764	146.155690204255	9.930281009529
12	4790	146.649352527223	10.066117240014
12	4807	147.155690204255	7.457745530247
12	4821	147.649352527223	10.010267631354
12	4835	148.155690204255	8.305451904993
12	4852	148.649352527223	10.623137539205
12	4872	149.155690204255	8.847279021035
12	4886	149.649352527223	11.058527038084
12	4900	150.155690204255	9.744958406182
12	4914	150.649352527223	11.808445543106
12	4934	151.155690204255	10.172496854754
12	4948	151.649352527223	10.539811550414
12	4962	152.155690204255	7.034687094244
12	4976	152.649352527223	9.314896893189
12	4990	153.155690204255	7.264610234698
12	5007	153.649352527223	10.013330979966
12	5021	154.155690204255	7.670536736374
12	5035	154.649352527223	9.372433402039
12	5049	155.155690204255	8.564924092745
12	5069	155.649352527223	9.155413906702
12	5089	156.155690204255	7.045641962662
12	5109	156.649352527223	10.050532071102
12	5129	157.155690204255	6.205909177585
12	5143	157.649352527223	10.616186415158
12	5157	158.155690204255	7.044039090873
12	5177	158.649352527223	10.363578890246
12	5191	159.155690204255	5.693861801122
12	5205	159.649352527223	10.730116272523
12	5219	160.155690204255	4.667952984019
12	5239	160.649352527223	4.964725752586
12	5265	161.155690204255	5.629670071134
12	5285	161.649352527223	5.254807825362
12	5299	162.155690204255	6.452344495989
12	5316	162.649352527223	6.072269223479
12	5333	163.155690204255	6.496378072067
12	5350	163.649352527223	6.940085513864
12	5364	164.155690204255	5.986554616458
12	5381	164.649352527223	6.056156627278
12	5395	165.155690204255	4.984568120932
12	5418	165.649352527223	5.409437525951
12	5435	166.155690204255	5.454565242795
12	5449	166.649352527223	5.567556564219
12	5463	167.155690204255	6.303774232601
12	5483	167.649352527223	6.533769778667
12	5497	168.155690204255	6.780904202513
12	5511	168.649352527223	7.462094394354
12	5525	169.155690204255	6.585465636231
12	5551	169.649352527223	4.412247555549
12	5568	170.155690204255	7.118193069821
12	5582	170.649352527223	5.360335003366
12	5599	171.155690204255	7.513893997973
12	5613	171.649352527223	4.34756226716
12	5627	172.155690204255	7.969036869828
12	5644	172.649352527223	5.330794501168
12	5664	173.155690204255	7.688702666016
12	5681	173.649352527223	4.394217263677
12	5698	174.155690204255	8.233790821224
12	5724	174.649352527223	5.131887954511
12	5750	175.155690204255	5.52383022932
12	5767	175.649352527223	6.120104722593
12	5784	176.155690204255	6.077577408801
12	5801	176.649352527223	5.672310640605
12	5818	177.155690204255	4.192965656699
12	5832	177.649352527223	5.363012276582
12	5849	178.155690204255	5.00467068148
12	5863	178.649352527223	4.976720924561
12	5877	179.155690204255	5.590058138821
12	5891	179.649352527223	5.304260407727
12	5908	180.155690204255	5.853927038834
12	5928	180.649352527223	5.890281485054
12	5942	181.155690204255	6.798056985945
12	5962	181.649352527223	6.871586014633
12	5982	182.155690204255	7.574917777844
12	5999	182.649352527223	7.68406706343
12	6019	183.155690204255	8.377088270385
12	6036	183.649352527223	8.061469719452
12	6053	184.155690204255	7.798675548279
12	6070	184.649352527223	8.807964014309
12	6087	185.155690204255	8.375018446922
12	6101	185.649352527223	7.731932953866
12	6115	186.155690204255	6.490474158515
12	6129	186.649352527223	6.099714091317
12	6143	187.155690204255	6.553335440792
12	6160	187.649352527223	5.880917287974
12	6177	188.155690204255	6.645371413467
12	6191	188.649352527223	6.700959946422
12	6211	189.155690204255	7.613014608822
12	6225	189.649352527223	7.007760176884
12	6245	190.155690204255	7.082183382555
12	6259	190.649352527223	7.036278018789
12	6276	191.155690204255	8.03050047676
12	6290	191.649352527223	6.835307112247
12	6307	192.155690204255	8.169576840079
12	6324	192.649352527223	5.113958856334
12	6338	193.155690204255	8.897908769737
12	6358	193.649352527223	5.802991051364
12	6372	194.155690204255	5.018775881743
12	6389	194.649352527223	5.851161343822
12	6409	195.155690204255	5.251696227171
12	6432	195.649352527223	5.714564848565
12	6452	196.155690204255	4.254524259681
12	6466	196.649352527223	5.823186271655
12	6483	197.155690204255	3.944738888319
12	6497	197.649352527223	5.433509207879
12	6514	198.155690204255	4.570852392416
12	6527	198.649352527223	3.095574874025
12	6544	199.155690204255	4.762872339017
12	6559	199.649352527223	3.889542825542

